
 PSS(R)E Version 35
 Copyright (c) 1976-2025
 Siemens Industry, Inc.,
 Power Technologies International                            (PTI)
 This program is a confidential  unpublished  work  created  and  first
 licensed in 1976.  It is a trade secret which is the property of  PTI.
 All use,  disclosure,  and/or reproduction not specifically authorized
 by  PTI  is prohibited.   This  program is protected  under  copyright
 laws  of  non-U.S.  countries  and  by  application  of  international
 treaties.  All  Rights  Reserved  Under  The  Copyright  Laws.


           SIEMENS POWER TECHNOLOGIES INTERNATIONAL

      20000 BUS POWER SYSTEM SIMULATOR--PSS(R)E-35.5.0

             INITIATED ON FRI, OCT 31 2025  14:37

 NEW ENGLAND TEST SYSTEM, 39 BUSES, 9 GENERATORS, 2 AREAS, 4
 UPDATED BY JOSE CONTO


 Power flow solution parameters changed:
 X--ORIGINAL--X  X-NEW VALUE--X  DATA ITEM
         20             100      ITMXN

 4 loads converted during this step

 15 loads converted during this step

 19 of 19 loads converted

  ITER       DELTAP      BUS         DELTAQ      BUS        DELTA/V/      BUS       DELTAANG      BUS
   0.0       0.0001(      6     )    0.0000(      8     )
                                                             0.00000(            )   0.00000(     31     )
   0.5       0.0000(     31     )    0.0000(     31     )
                                                             0.00000(     31     )   0.00000(            )
   1.0       0.0000(      6     )    0.0000(     31     )


 Reached tolerance in 1 iterations

 Largest mismatch:     -0.00 MW     -0.00 Mvar      0.00 MVA at bus 6 [BUS6        345.00]
 System total absolute mismatch:                    0.00 MVA

 SWING BUS SUMMARY:
   BUS#-SCT X-- NAME --X BASKV      PGEN     PMAX    PMIN      QGEN     QMAX    QMIN
     39     GEN39       345.00     708.5   1090.0     0.0     115.9    574.8  -173.3

 Generator conversion completed using ZSORCE
 Diagonals = 42   Off-diagonals = 70   Maximum size = 98

 42 diagonal and 70 off-diagonal elements

 ITER DELTAV/TOL X----------- AT BUS -----------X  REAL(DELTAV)  IMAG(DELTAV)
    1     0.015      31     [GEN31       34.500]    0.1491E-06    0.6691E-08

 Reached tolerance in 1 iterations

 Largest mismatch:      0.01 MW      0.03 Mvar      0.03 MVA at bus 39 [GEN39       345.00]
 System total absolute mismatch:                    0.06 MVA

 ITER DELTAV/TOL X----------- AT BUS -----------X  REAL(DELTAV)  IMAG(DELTAV)
    1     0.001       8     [LOAD8       345.00]    0.5288E-08   -0.5221E-08

 Reached tolerance in 1 iterations

 Largest mismatch:      0.01 MW      0.03 Mvar      0.03 MVA at bus 39 [GEN39       345.00]
 System total absolute mismatch:                    0.06 MVA


 Model "REGCAU1" at bus 40     [RE40_2      345.00] converted to Model "REGCA1"

 Model "REECAU1" at bus 40     [RE40_2      345.00] converted to Model "REECA1"

 Model "REPCAU1" at bus 40     [RE40_2      345.00] converted to Model "REPCA1"

 Model "REGCAU1" at bus 41     [RE41_29     345.00] converted to Model "REGCA1"

 Model "REECAU1" at bus 41     [RE41_29     345.00] converted to Model "REECA1"

 Model "REPCAU1" at bus 41     [RE41_29     345.00] converted to Model "REPCA1"

 Model "REGCAU1" at bus 42     [RE42_39     345.00] converted to Model "REGCA1"

 Model "REECAU1" at bus 42     [RE42_39     345.00] converted to Model "REECA1"

 Model "REPCAU1" at bus 42     [RE42_39     345.00] converted to Model "REPCA1"

 Model "GENTPJU1" at bus 30     [GEN30       34.500] converted to Model "GENTPJ1"

 Model "GENTPJU1" at bus 31     [GEN31       34.500] converted to Model "GENTPJ1"

 Model "GENTPJU1" at bus 32     [GEN32       21.000] converted to Model "GENTPJ1"

 Model "GENTPJU1" at bus 33     [GEN33       21.000] converted to Model "GENTPJ1"

 Model "GENTPJU1" at bus 34     [GEN34       15.500] converted to Model "GENTPJ1"

 Model "GENTPJU1" at bus 35     [GEN35       15.500] converted to Model "GENTPJ1"

 Model "GENTPJU1" at bus 36     [GEN36       12.500] converted to Model "GENTPJ1"

 Model "GENTPJU1" at bus 37     [GEN37       12.500] converted to Model "GENTPJ1"

 Model "GENTPJU1" at bus 38     [GEN38       34.500] converted to Model "GENTPJ1"

 Model "GENTPJU1" at bus 39     [GEN39       345.00] converted to Model "GENTPJ1"
 Out of file data--switch to terminal input mode

 Generator models use:
  CONS         1-    160
  STATES       1-     60
  VARS         1-     10

 Stabilizer models use:
  CONS       161-    330
  STATES      61-    220
  VARS        11-     50
  ICONS        1-     60

 Excitation System models use:
  CONS       331-    490
  STATES     221-    270
  VARS        51-     60

 Turbine Governor models use:
  CONS       491-    600
  STATES     271-    320
  VARS        61-     70

 Renewable Generator models use:
  CONS       601-    642
  STATES     321-    329
  VARS        71-     82
  ICONS       61-     63

 Renewable Electrical models use:
  CONS       643-    777
  STATES     330-    347
  VARS        83-    109
  ICONS       64-     81

 Renewable Auxiliary models use:
  CONS       778-    858
  STATES     348-    368
  VARS       110-    136
  ICONS       82-    102


 SUMMARY OF MODELS READ:

 GENS:  GENTPJ1
          10

 STABS: PSS2A
          10

 EXSYS: IEEEX1
          10

 GOVS:  IEESGO
          10

 REGEN: REGCA1
           3

 REELC: REECA1
           3

 REPLN: REPCA1
           3

 NEXT AVAILABLE ADDRESSES ARE:
     CON   STATE     VAR    ICON
     859     369     137     103

 Only PSSE supplied models in case. Compilation is not required

 Out of file data--switch to terminal input mode

 Shared Load Characteristic models use:
  CONS       859-   1257
  ICONS      103-    108

 Unshared Load models use:
  STATES     369-    449
  VARS       137-    574
  ICONS      109-    252


 SUMMARY OF MODELS READ:

 USER:  USRLOD
           3

 NEXT AVAILABLE ADDRESSES ARE:
     CON   STATE     VAR    ICON
    1258     450     575     253

 CONEC and CONET (if present) are unchanged. Compile CONEC and CONET (if present) and
 Compile models not supplied by PSSE and create user dll

 8 Output channels have been added


 Next available addresses are:
   CHANNEL    VAR    ICON
        9     583     257

 4 Output channels have been added


 Next available addresses are:
   CHANNEL    VAR    ICON
       13     583     257

 4 Output channels have been added


 Next available addresses are:
   CHANNEL    VAR    ICON
       17     583     257

 CHANNEL   17 WITH IDENTIFIER "BUS3 LOAD MVA" ADDED

 CHANNEL   18 WITH IDENTIFIER "BUS3 UD" ADDED

 CHANNEL   19 WITH IDENTIFIER "BUS3 UQ" ADDED

 CHANNEL   20 WITH IDENTIFIER "BUS3 LOAD BUS V" ADDED

 CHANNEL   21 WITH IDENTIFIER "BUS3 LOW SIDE BUS V" ADDED

 CHANNEL   22 WITH IDENTIFIER "BUS3 MA P" ADDED

 CHANNEL   23 WITH IDENTIFIER "BUS3 MA Q" ADDED

 CHANNEL   24 WITH IDENTIFIER "BUS3 TELE" ADDED

 CHANNEL   25 WITH IDENTIFIER "BUS3 SPEED DEVIATION" ADDED

 CHANNEL   26 WITH IDENTIFIER "BUS3 INIT LOAD TORQUE" ADDED

 CHANNEL   27 WITH IDENTIFIER "BUS3 ID" ADDED

 CHANNEL   28 WITH IDENTIFIER "BUS3 IQ" ADDED

 CHANNEL   29 WITH IDENTIFIER "BUS3 MA I" ADDED

 CHANNEL   30 WITH IDENTIFIER "BUS3 MA MVA" ADDED

 CHANNEL   31 WITH IDENTIFIER "BUS3 TL" ADDED

 CHANNEL   32 WITH IDENTIFIER "BUS3 EQ1" ADDED

 CHANNEL   33 WITH IDENTIFIER "BUS3 ED1" ADDED

 CHANNEL   34 WITH IDENTIFIER "BUS3 EQ2" ADDED

 CHANNEL   35 WITH IDENTIFIER "BUS3 ED2" ADDED

 CHANNEL   36 WITH IDENTIFIER "BUS3 SPEED DEVIATION" ADDED

 CHANNEL   37 WITH IDENTIFIER "BUS3 ANGLE DEVIATION" ADDED

 42 diagonal and 70 off-diagonal elements

 Models have removed constant admittance load and/or machines--REFACTORIZING

 42 diagonal and 70 off-diagonal elements

 Model REPCA1 Bus 40 [RE40_2      345.00] Machine "1 " :
 Branch not defined in ICONs M+1 through M+3: Model will use machine power instead

 Model REPCA1 Bus 41 [RE41_29     345.00] Machine "1 " :
 Branch not defined in ICONs M+1 through M+3: Model will use machine power instead

 Model REPCA1 Bus 42 [RE42_39     345.00] Machine "1 " :
 Branch not defined in ICONs M+1 through M+3: Model will use machine power instead

     PTI INTERACTIVE POWER SYSTEM SIMULATOR--PSS(R)E     FRI, OCT 31 2025  14:37
 NEW ENGLAND TEST SYSTEM, 39 BUSES, 9 GENERATORS, 2 AREAS, 4
 UPDATED BY JOSE CONTO

 INITIAL CONDITION LOAD FLOW USED 1 ITERATIONS

 ----------------------------- MACHINE INITIAL CONDITIONS -----------------------------
   BUS#-SCT X-- NAME --X BASKV ID  ETERM   EFD    POWER    VARS   P.F.  ANGLE   ID     IQ
     30     GEN30       34.500 1  1.0268 2.7988  250.00  153.18 0.8527  20.74 0.9477 0.4243
     31     GEN31       34.500 1  1.0015 2.6667  572.93  429.80 0.7999  12.21 0.7725 0.3675
     32     GEN32       21.000 1  0.9831 1.7067  450.00  121.03 0.9657  19.16 0.4270 0.3651
     33     GEN33       21.000 1  0.9972 1.7346  632.00  176.55 0.9631  21.62 0.4236 0.3665
     34     GEN34       15.500 1  1.0123 1.7352  508.00  198.31 0.9315  14.96 0.3802 0.3227
     35     GEN35       15.500 1  1.0493 1.9708  450.00  260.05 0.8658   7.49 0.3538 0.2880
     36     GEN36       12.500 1  1.0635 1.8249  560.00  137.20 0.9713  21.31 0.3661 0.3816
     37     GEN37       12.500 1  1.0278 1.7353  540.00   96.30 0.9845  25.24 0.3818 0.3960
     38     GEN38       34.500 1  1.0265 1.5151  629.99  145.13 0.9745  18.75 0.2311 0.2940
     39     GEN39       345.00 1  1.0300 1.7565  708.52  115.91 0.9869  24.50 0.4092 0.4129
     40     RE40_2      345.00 1  1.0200 0.0000  200.00   -2.28 0.9999 -10.68-0.0112 0.9804
     41     RE41_29     345.00 1  1.0150 0.0000  200.00  -19.03 0.9955  -6.36-0.0937 0.9852
     42     RE42_39     345.00 1  1.0250 0.0000  200.00   -0.76 1.0000  -5.52-0.0037 0.9756

 INITIAL CONDITIONS CHECK O.K.

 Channel output file is "./Cases/IEEE39_RE.out"

 No power flow data changed for load "1" at bus 12 [LOAD12      138.00]

 No power flow data changed for load "1" at bus 7 [LOAD7       345.00]

 No power flow data changed for load "1" at bus 8 [LOAD8       345.00]

 No power flow data changed for load "1" at bus 23 [LOAD23      345.00]

 No power flow data changed for load "1" at bus 16 [LOAD16      345.00]

 No power flow data changed for load "1" at bus 18 [LOAD18      345.00]

 No power flow data changed for load "1" at bus 26 [LOAD26      345.00]

 Power flow data changed for load "1" at bus 29 [LOAD29      345.00]:
 X--ORIGINAL--X  X-NEW VALUE--X  DATA ITEM
    0.00000        0.359719E-03  PL

 Channel output file is "./Cases/IEEE39_RE.out"

 42 diagonal and 70 off-diagonal elements

 No power flow data changed for load "1" at bus 12 [LOAD12      138.00]

 No power flow data changed for load "1" at bus 7 [LOAD7       345.00]

 No power flow data changed for load "1" at bus 8 [LOAD8       345.00]

 No power flow data changed for load "1" at bus 23 [LOAD23      345.00]

 No power flow data changed for load "1" at bus 16 [LOAD16      345.00]

 No power flow data changed for load "1" at bus 18 [LOAD18      345.00]

 No power flow data changed for load "1" at bus 26 [LOAD26      345.00]

 Power flow data changed for load "1" at bus 29 [LOAD29      345.00]:
 X--ORIGINAL--X  X-NEW VALUE--X  DATA ITEM
   0.359719E-03    -36.2981      PL

 Channel output file is "./Cases/IEEE39_RE.out"

 42 diagonal and 70 off-diagonal elements

 No power flow data changed for load "1" at bus 12 [LOAD12      138.00]

 No power flow data changed for load "1" at bus 7 [LOAD7       345.00]

 No power flow data changed for load "1" at bus 8 [LOAD8       345.00]

 No power flow data changed for load "1" at bus 23 [LOAD23      345.00]

 No power flow data changed for load "1" at bus 16 [LOAD16      345.00]

 No power flow data changed for load "1" at bus 18 [LOAD18      345.00]

 No power flow data changed for load "1" at bus 26 [LOAD26      345.00]

 Power flow data changed for load "1" at bus 29 [LOAD29      345.00]:
 X--ORIGINAL--X  X-NEW VALUE--X  DATA ITEM
   -36.2981        -65.1622      PL

 Channel output file is "./Cases/IEEE39_RE.out"

 42 diagonal and 70 off-diagonal elements

 No power flow data changed for load "1" at bus 12 [LOAD12      138.00]

 No power flow data changed for load "1" at bus 7 [LOAD7       345.00]

 No power flow data changed for load "1" at bus 8 [LOAD8       345.00]

 No power flow data changed for load "1" at bus 23 [LOAD23      345.00]

 No power flow data changed for load "1" at bus 16 [LOAD16      345.00]

 No power flow data changed for load "1" at bus 18 [LOAD18      345.00]

 No power flow data changed for load "1" at bus 26 [LOAD26      345.00]

 Power flow data changed for load "1" at bus 29 [LOAD29      345.00]:
 X--ORIGINAL--X  X-NEW VALUE--X  DATA ITEM
   -65.1622        -78.4662      PL

 Channel output file is "./Cases/IEEE39_RE.out"

 42 diagonal and 70 off-diagonal elements

 No power flow data changed for load "1" at bus 12 [LOAD12      138.00]

 No power flow data changed for load "1" at bus 7 [LOAD7       345.00]

 No power flow data changed for load "1" at bus 8 [LOAD8       345.00]

 No power flow data changed for load "1" at bus 23 [LOAD23      345.00]

 No power flow data changed for load "1" at bus 16 [LOAD16      345.00]

 No power flow data changed for load "1" at bus 18 [LOAD18      345.00]

 No power flow data changed for load "1" at bus 26 [LOAD26      345.00]

 Power flow data changed for load "1" at bus 29 [LOAD29      345.00]:
 X--ORIGINAL--X  X-NEW VALUE--X  DATA ITEM
   -78.4662        -69.2903      PL

 Channel output file is "./Cases/IEEE39_RE.out"

 42 diagonal and 70 off-diagonal elements

 No power flow data changed for load "1" at bus 12 [LOAD12      138.00]

 No power flow data changed for load "1" at bus 7 [LOAD7       345.00]

 No power flow data changed for load "1" at bus 8 [LOAD8       345.00]

 No power flow data changed for load "1" at bus 23 [LOAD23      345.00]

 No power flow data changed for load "1" at bus 16 [LOAD16      345.00]

 No power flow data changed for load "1" at bus 18 [LOAD18      345.00]

 No power flow data changed for load "1" at bus 26 [LOAD26      345.00]

 Power flow data changed for load "1" at bus 29 [LOAD29      345.00]:
 X--ORIGINAL--X  X-NEW VALUE--X  DATA ITEM
   -69.2903        -34.2054      PL

 Channel output file is "./Cases/IEEE39_RE.out"

 42 diagonal and 70 off-diagonal elements

 No power flow data changed for load "1" at bus 12 [LOAD12      138.00]

 No power flow data changed for load "1" at bus 7 [LOAD7       345.00]

 No power flow data changed for load "1" at bus 8 [LOAD8       345.00]

 No power flow data changed for load "1" at bus 23 [LOAD23      345.00]

 No power flow data changed for load "1" at bus 16 [LOAD16      345.00]

 No power flow data changed for load "1" at bus 18 [LOAD18      345.00]

 No power flow data changed for load "1" at bus 26 [LOAD26      345.00]

 Power flow data changed for load "1" at bus 29 [LOAD29      345.00]:
 X--ORIGINAL--X  X-NEW VALUE--X  DATA ITEM
   -34.2054         24.6917      PL

 Channel output file is "./Cases/IEEE39_RE.out"

 42 diagonal and 70 off-diagonal elements

 No power flow data changed for load "1" at bus 12 [LOAD12      138.00]

 No power flow data changed for load "1" at bus 7 [LOAD7       345.00]

 No power flow data changed for load "1" at bus 8 [LOAD8       345.00]

 No power flow data changed for load "1" at bus 23 [LOAD23      345.00]

 No power flow data changed for load "1" at bus 16 [LOAD16      345.00]

 No power flow data changed for load "1" at bus 18 [LOAD18      345.00]

 No power flow data changed for load "1" at bus 26 [LOAD26      345.00]

 Power flow data changed for load "1" at bus 29 [LOAD29      345.00]:
 X--ORIGINAL--X  X-NEW VALUE--X  DATA ITEM
    24.6917         99.1047      PL

 Channel output file is "./Cases/IEEE39_RE.out"

 42 diagonal and 70 off-diagonal elements

 No power flow data changed for load "1" at bus 12 [LOAD12      138.00]

 No power flow data changed for load "1" at bus 7 [LOAD7       345.00]

 No power flow data changed for load "1" at bus 8 [LOAD8       345.00]

 No power flow data changed for load "1" at bus 23 [LOAD23      345.00]

 No power flow data changed for load "1" at bus 16 [LOAD16      345.00]

 No power flow data changed for load "1" at bus 18 [LOAD18      345.00]

 No power flow data changed for load "1" at bus 26 [LOAD26      345.00]

 Power flow data changed for load "1" at bus 29 [LOAD29      345.00]:
 X--ORIGINAL--X  X-NEW VALUE--X  DATA ITEM
    99.1047         175.883      PL

 Channel output file is "./Cases/IEEE39_RE.out"

 42 diagonal and 70 off-diagonal elements

 No power flow data changed for load "1" at bus 12 [LOAD12      138.00]

 No power flow data changed for load "1" at bus 7 [LOAD7       345.00]

 No power flow data changed for load "1" at bus 8 [LOAD8       345.00]

 No power flow data changed for load "1" at bus 23 [LOAD23      345.00]

 No power flow data changed for load "1" at bus 16 [LOAD16      345.00]

 No power flow data changed for load "1" at bus 18 [LOAD18      345.00]

 No power flow data changed for load "1" at bus 26 [LOAD26      345.00]

 Power flow data changed for load "1" at bus 29 [LOAD29      345.00]:
 X--ORIGINAL--X  X-NEW VALUE--X  DATA ITEM
    175.883         240.210      PL

 Channel output file is "./Cases/IEEE39_RE.out"

 42 diagonal and 70 off-diagonal elements

 No power flow data changed for load "1" at bus 12 [LOAD12      138.00]

 No power flow data changed for load "1" at bus 7 [LOAD7       345.00]

 No power flow data changed for load "1" at bus 8 [LOAD8       345.00]

 No power flow data changed for load "1" at bus 23 [LOAD23      345.00]

 No power flow data changed for load "1" at bus 16 [LOAD16      345.00]

 No power flow data changed for load "1" at bus 18 [LOAD18      345.00]

 No power flow data changed for load "1" at bus 26 [LOAD26      345.00]

 Power flow data changed for load "1" at bus 29 [LOAD29      345.00]:
 X--ORIGINAL--X  X-NEW VALUE--X  DATA ITEM
    240.210         279.646      PL

 Channel output file is "./Cases/IEEE39_RE.out"

 42 diagonal and 70 off-diagonal elements

 No power flow data changed for load "1" at bus 12 [LOAD12      138.00]

 No power flow data changed for load "1" at bus 7 [LOAD7       345.00]

 No power flow data changed for load "1" at bus 8 [LOAD8       345.00]

 No power flow data changed for load "1" at bus 23 [LOAD23      345.00]

 No power flow data changed for load "1" at bus 16 [LOAD16      345.00]

 No power flow data changed for load "1" at bus 18 [LOAD18      345.00]

 No power flow data changed for load "1" at bus 26 [LOAD26      345.00]

 Power flow data changed for load "1" at bus 29 [LOAD29      345.00]:
 X--ORIGINAL--X  X-NEW VALUE--X  DATA ITEM
    279.646         287.665      PL

 Channel output file is "./Cases/IEEE39_RE.out"

 42 diagonal and 70 off-diagonal elements

 No power flow data changed for load "1" at bus 12 [LOAD12      138.00]

 No power flow data changed for load "1" at bus 7 [LOAD7       345.00]

 No power flow data changed for load "1" at bus 8 [LOAD8       345.00]

 No power flow data changed for load "1" at bus 23 [LOAD23      345.00]

 No power flow data changed for load "1" at bus 16 [LOAD16      345.00]

 No power flow data changed for load "1" at bus 18 [LOAD18      345.00]

 No power flow data changed for load "1" at bus 26 [LOAD26      345.00]

 Power flow data changed for load "1" at bus 29 [LOAD29      345.00]:
 X--ORIGINAL--X  X-NEW VALUE--X  DATA ITEM
    287.665         265.420      PL

 Channel output file is "./Cases/IEEE39_RE.out"

 42 diagonal and 70 off-diagonal elements
 LTC DELAY TIMER STARTED AT                24 LOAD24       345.00 1  V= 1.0000 AT TIME=   1.232

 No power flow data changed for load "1" at bus 12 [LOAD12      138.00]

 No power flow data changed for load "1" at bus 7 [LOAD7       345.00]

 No power flow data changed for load "1" at bus 8 [LOAD8       345.00]

 No power flow data changed for load "1" at bus 23 [LOAD23      345.00]

 No power flow data changed for load "1" at bus 16 [LOAD16      345.00]

 No power flow data changed for load "1" at bus 18 [LOAD18      345.00]

 No power flow data changed for load "1" at bus 26 [LOAD26      345.00]

 Power flow data changed for load "1" at bus 29 [LOAD29      345.00]:
 X--ORIGINAL--X  X-NEW VALUE--X  DATA ITEM
    265.420         221.071      PL

 Channel output file is "./Cases/IEEE39_RE.out"

 42 diagonal and 70 off-diagonal elements

 No power flow data changed for load "1" at bus 12 [LOAD12      138.00]

 No power flow data changed for load "1" at bus 7 [LOAD7       345.00]

 No power flow data changed for load "1" at bus 8 [LOAD8       345.00]

 No power flow data changed for load "1" at bus 23 [LOAD23      345.00]

 No power flow data changed for load "1" at bus 16 [LOAD16      345.00]

 No power flow data changed for load "1" at bus 18 [LOAD18      345.00]

 No power flow data changed for load "1" at bus 26 [LOAD26      345.00]

 Power flow data changed for load "1" at bus 29 [LOAD29      345.00]:
 X--ORIGINAL--X  X-NEW VALUE--X  DATA ITEM
    221.071         166.844      PL

 Channel output file is "./Cases/IEEE39_RE.out"

 42 diagonal and 70 off-diagonal elements

 No power flow data changed for load "1" at bus 12 [LOAD12      138.00]

 No power flow data changed for load "1" at bus 7 [LOAD7       345.00]

 No power flow data changed for load "1" at bus 8 [LOAD8       345.00]

 No power flow data changed for load "1" at bus 23 [LOAD23      345.00]

 No power flow data changed for load "1" at bus 16 [LOAD16      345.00]

 No power flow data changed for load "1" at bus 18 [LOAD18      345.00]

 No power flow data changed for load "1" at bus 26 [LOAD26      345.00]

 Power flow data changed for load "1" at bus 29 [LOAD29      345.00]:
 X--ORIGINAL--X  X-NEW VALUE--X  DATA ITEM
    166.844         114.802      PL

 Channel output file is "./Cases/IEEE39_RE.out"

 42 diagonal and 70 off-diagonal elements
 LTC DELAY TIMER STARTED AT                15 LOAD15       345.00 1  V= 1.0000 AT TIME=   1.536

 No power flow data changed for load "1" at bus 12 [LOAD12      138.00]

 No power flow data changed for load "1" at bus 7 [LOAD7       345.00]

 No power flow data changed for load "1" at bus 8 [LOAD8       345.00]

 No power flow data changed for load "1" at bus 23 [LOAD23      345.00]

 No power flow data changed for load "1" at bus 16 [LOAD16      345.00]

 No power flow data changed for load "1" at bus 18 [LOAD18      345.00]

 No power flow data changed for load "1" at bus 26 [LOAD26      345.00]

 Power flow data changed for load "1" at bus 29 [LOAD29      345.00]:
 X--ORIGINAL--X  X-NEW VALUE--X  DATA ITEM
    114.802         72.9102      PL

 Channel output file is "./Cases/IEEE39_RE.out"

 42 diagonal and 70 off-diagonal elements

 No power flow data changed for load "1" at bus 12 [LOAD12      138.00]

 No power flow data changed for load "1" at bus 7 [LOAD7       345.00]

 No power flow data changed for load "1" at bus 8 [LOAD8       345.00]

 No power flow data changed for load "1" at bus 23 [LOAD23      345.00]

 No power flow data changed for load "1" at bus 16 [LOAD16      345.00]

 No power flow data changed for load "1" at bus 18 [LOAD18      345.00]

 No power flow data changed for load "1" at bus 26 [LOAD26      345.00]

 Power flow data changed for load "1" at bus 29 [LOAD29      345.00]:
 X--ORIGINAL--X  X-NEW VALUE--X  DATA ITEM
    72.9102         42.9415      PL

 Channel output file is "./Cases/IEEE39_RE.out"

 42 diagonal and 70 off-diagonal elements

 No power flow data changed for load "1" at bus 12 [LOAD12      138.00]

 No power flow data changed for load "1" at bus 7 [LOAD7       345.00]

 No power flow data changed for load "1" at bus 8 [LOAD8       345.00]

 No power flow data changed for load "1" at bus 23 [LOAD23      345.00]

 No power flow data changed for load "1" at bus 16 [LOAD16      345.00]

 No power flow data changed for load "1" at bus 18 [LOAD18      345.00]

 No power flow data changed for load "1" at bus 26 [LOAD26      345.00]

 Power flow data changed for load "1" at bus 29 [LOAD29      345.00]:
 X--ORIGINAL--X  X-NEW VALUE--X  DATA ITEM
    42.9415         21.1138      PL

 Channel output file is "./Cases/IEEE39_RE.out"

 42 diagonal and 70 off-diagonal elements

 No power flow data changed for load "1" at bus 12 [LOAD12      138.00]

 No power flow data changed for load "1" at bus 7 [LOAD7       345.00]

 No power flow data changed for load "1" at bus 8 [LOAD8       345.00]

 No power flow data changed for load "1" at bus 23 [LOAD23      345.00]

 No power flow data changed for load "1" at bus 16 [LOAD16      345.00]

 No power flow data changed for load "1" at bus 18 [LOAD18      345.00]

 No power flow data changed for load "1" at bus 26 [LOAD26      345.00]

 Power flow data changed for load "1" at bus 29 [LOAD29      345.00]:
 X--ORIGINAL--X  X-NEW VALUE--X  DATA ITEM
    21.1138         1.17334      PL

 Channel output file is "./Cases/IEEE39_RE.out"

 42 diagonal and 70 off-diagonal elements

 No power flow data changed for load "1" at bus 12 [LOAD12      138.00]

 No power flow data changed for load "1" at bus 7 [LOAD7       345.00]

 No power flow data changed for load "1" at bus 8 [LOAD8       345.00]

 No power flow data changed for load "1" at bus 23 [LOAD23      345.00]

 No power flow data changed for load "1" at bus 16 [LOAD16      345.00]

 No power flow data changed for load "1" at bus 18 [LOAD18      345.00]

 No power flow data changed for load "1" at bus 26 [LOAD26      345.00]

 Power flow data changed for load "1" at bus 29 [LOAD29      345.00]:
 X--ORIGINAL--X  X-NEW VALUE--X  DATA ITEM
    1.17334        -21.5101      PL

 Channel output file is "./Cases/IEEE39_RE.out"

 42 diagonal and 70 off-diagonal elements

 No power flow data changed for load "1" at bus 12 [LOAD12      138.00]

 No power flow data changed for load "1" at bus 7 [LOAD7       345.00]

 No power flow data changed for load "1" at bus 8 [LOAD8       345.00]

 No power flow data changed for load "1" at bus 23 [LOAD23      345.00]

 No power flow data changed for load "1" at bus 16 [LOAD16      345.00]

 No power flow data changed for load "1" at bus 18 [LOAD18      345.00]

 No power flow data changed for load "1" at bus 26 [LOAD26      345.00]

 Power flow data changed for load "1" at bus 29 [LOAD29      345.00]:
 X--ORIGINAL--X  X-NEW VALUE--X  DATA ITEM
   -21.5101        -46.8342      PL

 Channel output file is "./Cases/IEEE39_RE.out"

 42 diagonal and 70 off-diagonal elements

 No power flow data changed for load "1" at bus 12 [LOAD12      138.00]

 No power flow data changed for load "1" at bus 7 [LOAD7       345.00]

 No power flow data changed for load "1" at bus 8 [LOAD8       345.00]

 No power flow data changed for load "1" at bus 23 [LOAD23      345.00]

 No power flow data changed for load "1" at bus 16 [LOAD16      345.00]

 No power flow data changed for load "1" at bus 18 [LOAD18      345.00]

 No power flow data changed for load "1" at bus 26 [LOAD26      345.00]

 Power flow data changed for load "1" at bus 29 [LOAD29      345.00]:
 X--ORIGINAL--X  X-NEW VALUE--X  DATA ITEM
   -46.8342        -69.4144      PL

 Channel output file is "./Cases/IEEE39_RE.out"

 42 diagonal and 70 off-diagonal elements

 No power flow data changed for load "1" at bus 12 [LOAD12      138.00]

 No power flow data changed for load "1" at bus 7 [LOAD7       345.00]

 No power flow data changed for load "1" at bus 8 [LOAD8       345.00]

 No power flow data changed for load "1" at bus 23 [LOAD23      345.00]

 No power flow data changed for load "1" at bus 16 [LOAD16      345.00]

 No power flow data changed for load "1" at bus 18 [LOAD18      345.00]

 No power flow data changed for load "1" at bus 26 [LOAD26      345.00]

 Power flow data changed for load "1" at bus 29 [LOAD29      345.00]:
 X--ORIGINAL--X  X-NEW VALUE--X  DATA ITEM
   -69.4144        -80.8876      PL

 Channel output file is "./Cases/IEEE39_RE.out"

 42 diagonal and 70 off-diagonal elements

 No power flow data changed for load "1" at bus 12 [LOAD12      138.00]

 No power flow data changed for load "1" at bus 7 [LOAD7       345.00]

 No power flow data changed for load "1" at bus 8 [LOAD8       345.00]

 No power flow data changed for load "1" at bus 23 [LOAD23      345.00]

 No power flow data changed for load "1" at bus 16 [LOAD16      345.00]

 No power flow data changed for load "1" at bus 18 [LOAD18      345.00]

 No power flow data changed for load "1" at bus 26 [LOAD26      345.00]

 Power flow data changed for load "1" at bus 29 [LOAD29      345.00]:
 X--ORIGINAL--X  X-NEW VALUE--X  DATA ITEM
   -80.8876        -73.8981      PL

 Channel output file is "./Cases/IEEE39_RE.out"

 42 diagonal and 70 off-diagonal elements

 No power flow data changed for load "1" at bus 12 [LOAD12      138.00]

 No power flow data changed for load "1" at bus 7 [LOAD7       345.00]

 No power flow data changed for load "1" at bus 8 [LOAD8       345.00]

 No power flow data changed for load "1" at bus 23 [LOAD23      345.00]

 No power flow data changed for load "1" at bus 16 [LOAD16      345.00]

 No power flow data changed for load "1" at bus 18 [LOAD18      345.00]

 No power flow data changed for load "1" at bus 26 [LOAD26      345.00]

 Power flow data changed for load "1" at bus 29 [LOAD29      345.00]:
 X--ORIGINAL--X  X-NEW VALUE--X  DATA ITEM
   -73.8981        -45.7835      PL

 Channel output file is "./Cases/IEEE39_RE.out"

 42 diagonal and 70 off-diagonal elements
     LTC DELAY TIMER RESET

 No power flow data changed for load "1" at bus 12 [LOAD12      138.00]

 No power flow data changed for load "1" at bus 7 [LOAD7       345.00]

 No power flow data changed for load "1" at bus 8 [LOAD8       345.00]

 No power flow data changed for load "1" at bus 23 [LOAD23      345.00]

 No power flow data changed for load "1" at bus 16 [LOAD16      345.00]

 No power flow data changed for load "1" at bus 18 [LOAD18      345.00]

 No power flow data changed for load "1" at bus 26 [LOAD26      345.00]

 Power flow data changed for load "1" at bus 29 [LOAD29      345.00]:
 X--ORIGINAL--X  X-NEW VALUE--X  DATA ITEM
   -45.7835       -0.285376      PL

 Channel output file is "./Cases/IEEE39_RE.out"

 42 diagonal and 70 off-diagonal elements
     LTC DELAY TIMER RESET

 No power flow data changed for load "1" at bus 12 [LOAD12      138.00]

 No power flow data changed for load "1" at bus 7 [LOAD7       345.00]

 No power flow data changed for load "1" at bus 8 [LOAD8       345.00]

 No power flow data changed for load "1" at bus 23 [LOAD23      345.00]

 No power flow data changed for load "1" at bus 16 [LOAD16      345.00]

 No power flow data changed for load "1" at bus 18 [LOAD18      345.00]

 No power flow data changed for load "1" at bus 26 [LOAD26      345.00]

 Power flow data changed for load "1" at bus 29 [LOAD29      345.00]:
 X--ORIGINAL--X  X-NEW VALUE--X  DATA ITEM
  -0.285376         53.2455      PL

 Channel output file is "./Cases/IEEE39_RE.out"

 42 diagonal and 70 off-diagonal elements

 No power flow data changed for load "1" at bus 12 [LOAD12      138.00]

 No power flow data changed for load "1" at bus 7 [LOAD7       345.00]

 No power flow data changed for load "1" at bus 8 [LOAD8       345.00]

 No power flow data changed for load "1" at bus 23 [LOAD23      345.00]

 No power flow data changed for load "1" at bus 16 [LOAD16      345.00]

 No power flow data changed for load "1" at bus 18 [LOAD18      345.00]

 No power flow data changed for load "1" at bus 26 [LOAD26      345.00]

 Power flow data changed for load "1" at bus 29 [LOAD29      345.00]:
 X--ORIGINAL--X  X-NEW VALUE--X  DATA ITEM
    53.2455         102.472      PL

 Channel output file is "./Cases/IEEE39_RE.out"

 42 diagonal and 70 off-diagonal elements

 No power flow data changed for load "1" at bus 12 [LOAD12      138.00]

 No power flow data changed for load "1" at bus 7 [LOAD7       345.00]

 No power flow data changed for load "1" at bus 8 [LOAD8       345.00]

 No power flow data changed for load "1" at bus 23 [LOAD23      345.00]

 No power flow data changed for load "1" at bus 16 [LOAD16      345.00]

 No power flow data changed for load "1" at bus 18 [LOAD18      345.00]

 No power flow data changed for load "1" at bus 26 [LOAD26      345.00]

 Power flow data changed for load "1" at bus 29 [LOAD29      345.00]:
 X--ORIGINAL--X  X-NEW VALUE--X  DATA ITEM
    102.472         135.319      PL

 Channel output file is "./Cases/IEEE39_RE.out"

 42 diagonal and 70 off-diagonal elements
 LTC DELAY TIMER STARTED AT                15 LOAD15       345.00 1  V= 1.0200 AT TIME=   2.968

 No power flow data changed for load "1" at bus 12 [LOAD12      138.00]

 No power flow data changed for load "1" at bus 7 [LOAD7       345.00]

 No power flow data changed for load "1" at bus 8 [LOAD8       345.00]

 No power flow data changed for load "1" at bus 23 [LOAD23      345.00]

 No power flow data changed for load "1" at bus 16 [LOAD16      345.00]

 No power flow data changed for load "1" at bus 18 [LOAD18      345.00]

 No power flow data changed for load "1" at bus 26 [LOAD26      345.00]

 Power flow data changed for load "1" at bus 29 [LOAD29      345.00]:
 X--ORIGINAL--X  X-NEW VALUE--X  DATA ITEM
    135.319         142.882      PL

 Channel output file is "./Cases/IEEE39_RE.out"

 42 diagonal and 70 off-diagonal elements
 LTC DELAY TIMER STARTED AT                24 LOAD24       345.00 1  V= 1.0200 AT TIME=   3.038

 No power flow data changed for load "1" at bus 12 [LOAD12      138.00]

 No power flow data changed for load "1" at bus 7 [LOAD7       345.00]

 No power flow data changed for load "1" at bus 8 [LOAD8       345.00]

 No power flow data changed for load "1" at bus 23 [LOAD23      345.00]

 No power flow data changed for load "1" at bus 16 [LOAD16      345.00]

 No power flow data changed for load "1" at bus 18 [LOAD18      345.00]

 No power flow data changed for load "1" at bus 26 [LOAD26      345.00]

 Power flow data changed for load "1" at bus 29 [LOAD29      345.00]:
 X--ORIGINAL--X  X-NEW VALUE--X  DATA ITEM
    142.882         121.597      PL

 Channel output file is "./Cases/IEEE39_RE.out"

 42 diagonal and 70 off-diagonal elements

 No power flow data changed for load "1" at bus 12 [LOAD12      138.00]

 No power flow data changed for load "1" at bus 7 [LOAD7       345.00]

 No power flow data changed for load "1" at bus 8 [LOAD8       345.00]

 No power flow data changed for load "1" at bus 23 [LOAD23      345.00]

 No power flow data changed for load "1" at bus 16 [LOAD16      345.00]

 No power flow data changed for load "1" at bus 18 [LOAD18      345.00]

 No power flow data changed for load "1" at bus 26 [LOAD26      345.00]

 Power flow data changed for load "1" at bus 29 [LOAD29      345.00]:
 X--ORIGINAL--X  X-NEW VALUE--X  DATA ITEM
    121.597         74.4128      PL

 Channel output file is "./Cases/IEEE39_RE.out"

 42 diagonal and 70 off-diagonal elements

 No power flow data changed for load "1" at bus 12 [LOAD12      138.00]

 No power flow data changed for load "1" at bus 7 [LOAD7       345.00]

 No power flow data changed for load "1" at bus 8 [LOAD8       345.00]

 No power flow data changed for load "1" at bus 23 [LOAD23      345.00]

 No power flow data changed for load "1" at bus 16 [LOAD16      345.00]

 No power flow data changed for load "1" at bus 18 [LOAD18      345.00]

 No power flow data changed for load "1" at bus 26 [LOAD26      345.00]

 Power flow data changed for load "1" at bus 29 [LOAD29      345.00]:
 X--ORIGINAL--X  X-NEW VALUE--X  DATA ITEM
    74.4128         10.6011      PL

 Channel output file is "./Cases/IEEE39_RE.out"

 42 diagonal and 70 off-diagonal elements

 No power flow data changed for load "1" at bus 12 [LOAD12      138.00]

 No power flow data changed for load "1" at bus 7 [LOAD7       345.00]

 No power flow data changed for load "1" at bus 8 [LOAD8       345.00]

 No power flow data changed for load "1" at bus 23 [LOAD23      345.00]

 No power flow data changed for load "1" at bus 16 [LOAD16      345.00]

 No power flow data changed for load "1" at bus 18 [LOAD18      345.00]

 No power flow data changed for load "1" at bus 26 [LOAD26      345.00]

 Power flow data changed for load "1" at bus 29 [LOAD29      345.00]:
 X--ORIGINAL--X  X-NEW VALUE--X  DATA ITEM
    10.6011        -56.2115      PL

 Channel output file is "./Cases/IEEE39_RE.out"

 42 diagonal and 70 off-diagonal elements

 No power flow data changed for load "1" at bus 12 [LOAD12      138.00]

 No power flow data changed for load "1" at bus 7 [LOAD7       345.00]

 No power flow data changed for load "1" at bus 8 [LOAD8       345.00]

 No power flow data changed for load "1" at bus 23 [LOAD23      345.00]

 No power flow data changed for load "1" at bus 16 [LOAD16      345.00]

 No power flow data changed for load "1" at bus 18 [LOAD18      345.00]

 No power flow data changed for load "1" at bus 26 [LOAD26      345.00]

 Power flow data changed for load "1" at bus 29 [LOAD29      345.00]:
 X--ORIGINAL--X  X-NEW VALUE--X  DATA ITEM
   -56.2115        -111.667      PL

 Channel output file is "./Cases/IEEE39_RE.out"

 42 diagonal and 70 off-diagonal elements

 No power flow data changed for load "1" at bus 12 [LOAD12      138.00]

 No power flow data changed for load "1" at bus 7 [LOAD7       345.00]

 No power flow data changed for load "1" at bus 8 [LOAD8       345.00]

 No power flow data changed for load "1" at bus 23 [LOAD23      345.00]

 No power flow data changed for load "1" at bus 16 [LOAD16      345.00]

 No power flow data changed for load "1" at bus 18 [LOAD18      345.00]

 No power flow data changed for load "1" at bus 26 [LOAD26      345.00]

 Power flow data changed for load "1" at bus 29 [LOAD29      345.00]:
 X--ORIGINAL--X  X-NEW VALUE--X  DATA ITEM
   -111.667        -144.968      PL

 Channel output file is "./Cases/IEEE39_RE.out"

 42 diagonal and 70 off-diagonal elements

 No power flow data changed for load "1" at bus 12 [LOAD12      138.00]

 No power flow data changed for load "1" at bus 7 [LOAD7       345.00]

 No power flow data changed for load "1" at bus 8 [LOAD8       345.00]

 No power flow data changed for load "1" at bus 23 [LOAD23      345.00]

 No power flow data changed for load "1" at bus 16 [LOAD16      345.00]

 No power flow data changed for load "1" at bus 18 [LOAD18      345.00]

 No power flow data changed for load "1" at bus 26 [LOAD26      345.00]

 Power flow data changed for load "1" at bus 29 [LOAD29      345.00]:
 X--ORIGINAL--X  X-NEW VALUE--X  DATA ITEM
   -144.968        -152.286      PL

 Channel output file is "./Cases/IEEE39_RE.out"

 42 diagonal and 70 off-diagonal elements

 No power flow data changed for load "1" at bus 12 [LOAD12      138.00]

 No power flow data changed for load "1" at bus 7 [LOAD7       345.00]

 No power flow data changed for load "1" at bus 8 [LOAD8       345.00]

 No power flow data changed for load "1" at bus 23 [LOAD23      345.00]

 No power flow data changed for load "1" at bus 16 [LOAD16      345.00]

 No power flow data changed for load "1" at bus 18 [LOAD18      345.00]

 No power flow data changed for load "1" at bus 26 [LOAD26      345.00]

 Power flow data changed for load "1" at bus 29 [LOAD29      345.00]:
 X--ORIGINAL--X  X-NEW VALUE--X  DATA ITEM
   -152.286        -137.834      PL

 Channel output file is "./Cases/IEEE39_RE.out"

 42 diagonal and 70 off-diagonal elements
     LTC DELAY TIMER RESET

 No power flow data changed for load "1" at bus 12 [LOAD12      138.00]

 No power flow data changed for load "1" at bus 7 [LOAD7       345.00]

 No power flow data changed for load "1" at bus 8 [LOAD8       345.00]

 No power flow data changed for load "1" at bus 23 [LOAD23      345.00]

 No power flow data changed for load "1" at bus 16 [LOAD16      345.00]

 No power flow data changed for load "1" at bus 18 [LOAD18      345.00]

 No power flow data changed for load "1" at bus 26 [LOAD26      345.00]

 Power flow data changed for load "1" at bus 29 [LOAD29      345.00]:
 X--ORIGINAL--X  X-NEW VALUE--X  DATA ITEM
   -137.834        -112.031      PL

 Channel output file is "./Cases/IEEE39_RE.out"

 42 diagonal and 70 off-diagonal elements
     LTC DELAY TIMER RESET

 No power flow data changed for load "1" at bus 12 [LOAD12      138.00]

 No power flow data changed for load "1" at bus 7 [LOAD7       345.00]

 No power flow data changed for load "1" at bus 8 [LOAD8       345.00]

 No power flow data changed for load "1" at bus 23 [LOAD23      345.00]

 No power flow data changed for load "1" at bus 16 [LOAD16      345.00]

 No power flow data changed for load "1" at bus 18 [LOAD18      345.00]

 No power flow data changed for load "1" at bus 26 [LOAD26      345.00]

 Power flow data changed for load "1" at bus 29 [LOAD29      345.00]:
 X--ORIGINAL--X  X-NEW VALUE--X  DATA ITEM
   -112.031        -87.3630      PL

 Channel output file is "./Cases/IEEE39_RE.out"

 42 diagonal and 70 off-diagonal elements

 No power flow data changed for load "1" at bus 12 [LOAD12      138.00]

 No power flow data changed for load "1" at bus 7 [LOAD7       345.00]

 No power flow data changed for load "1" at bus 8 [LOAD8       345.00]

 No power flow data changed for load "1" at bus 23 [LOAD23      345.00]

 No power flow data changed for load "1" at bus 16 [LOAD16      345.00]

 No power flow data changed for load "1" at bus 18 [LOAD18      345.00]

 No power flow data changed for load "1" at bus 26 [LOAD26      345.00]

 Power flow data changed for load "1" at bus 29 [LOAD29      345.00]:
 X--ORIGINAL--X  X-NEW VALUE--X  DATA ITEM
   -87.3630        -73.6152      PL

 Channel output file is "./Cases/IEEE39_RE.out"

 42 diagonal and 70 off-diagonal elements

 No power flow data changed for load "1" at bus 12 [LOAD12      138.00]

 No power flow data changed for load "1" at bus 7 [LOAD7       345.00]

 No power flow data changed for load "1" at bus 8 [LOAD8       345.00]

 No power flow data changed for load "1" at bus 23 [LOAD23      345.00]

 No power flow data changed for load "1" at bus 16 [LOAD16      345.00]

 No power flow data changed for load "1" at bus 18 [LOAD18      345.00]

 No power flow data changed for load "1" at bus 26 [LOAD26      345.00]

 Power flow data changed for load "1" at bus 29 [LOAD29      345.00]:
 X--ORIGINAL--X  X-NEW VALUE--X  DATA ITEM
   -73.6152        -74.5381      PL

 Channel output file is "./Cases/IEEE39_RE.out"

 42 diagonal and 70 off-diagonal elements

 No power flow data changed for load "1" at bus 12 [LOAD12      138.00]

 No power flow data changed for load "1" at bus 7 [LOAD7       345.00]

 No power flow data changed for load "1" at bus 8 [LOAD8       345.00]

 No power flow data changed for load "1" at bus 23 [LOAD23      345.00]

 No power flow data changed for load "1" at bus 16 [LOAD16      345.00]

 No power flow data changed for load "1" at bus 18 [LOAD18      345.00]

 No power flow data changed for load "1" at bus 26 [LOAD26      345.00]

 Power flow data changed for load "1" at bus 29 [LOAD29      345.00]:
 X--ORIGINAL--X  X-NEW VALUE--X  DATA ITEM
   -74.5381        -87.3913      PL

 Channel output file is "./Cases/IEEE39_RE.out"

 42 diagonal and 70 off-diagonal elements

 No power flow data changed for load "1" at bus 12 [LOAD12      138.00]

 No power flow data changed for load "1" at bus 7 [LOAD7       345.00]

 No power flow data changed for load "1" at bus 8 [LOAD8       345.00]

 No power flow data changed for load "1" at bus 23 [LOAD23      345.00]

 No power flow data changed for load "1" at bus 16 [LOAD16      345.00]

 No power flow data changed for load "1" at bus 18 [LOAD18      345.00]

 No power flow data changed for load "1" at bus 26 [LOAD26      345.00]

 Power flow data changed for load "1" at bus 29 [LOAD29      345.00]:
 X--ORIGINAL--X  X-NEW VALUE--X  DATA ITEM
   -87.3913        -105.406      PL

 Channel output file is "./Cases/IEEE39_RE.out"

 42 diagonal and 70 off-diagonal elements

 No power flow data changed for load "1" at bus 12 [LOAD12      138.00]

 No power flow data changed for load "1" at bus 7 [LOAD7       345.00]

 No power flow data changed for load "1" at bus 8 [LOAD8       345.00]

 No power flow data changed for load "1" at bus 23 [LOAD23      345.00]

 No power flow data changed for load "1" at bus 16 [LOAD16      345.00]

 No power flow data changed for load "1" at bus 18 [LOAD18      345.00]

 No power flow data changed for load "1" at bus 26 [LOAD26      345.00]

 Power flow data changed for load "1" at bus 29 [LOAD29      345.00]:
 X--ORIGINAL--X  X-NEW VALUE--X  DATA ITEM
   -105.406        -121.685      PL

 Channel output file is "./Cases/IEEE39_RE.out"

 42 diagonal and 70 off-diagonal elements

 No power flow data changed for load "1" at bus 12 [LOAD12      138.00]

 No power flow data changed for load "1" at bus 7 [LOAD7       345.00]

 No power flow data changed for load "1" at bus 8 [LOAD8       345.00]

 No power flow data changed for load "1" at bus 23 [LOAD23      345.00]

 No power flow data changed for load "1" at bus 16 [LOAD16      345.00]

 No power flow data changed for load "1" at bus 18 [LOAD18      345.00]

 No power flow data changed for load "1" at bus 26 [LOAD26      345.00]

 Power flow data changed for load "1" at bus 29 [LOAD29      345.00]:
 X--ORIGINAL--X  X-NEW VALUE--X  DATA ITEM
   -121.685        -132.355      PL

 Channel output file is "./Cases/IEEE39_RE.out"

 42 diagonal and 70 off-diagonal elements

 No power flow data changed for load "1" at bus 12 [LOAD12      138.00]

 No power flow data changed for load "1" at bus 7 [LOAD7       345.00]

 No power flow data changed for load "1" at bus 8 [LOAD8       345.00]

 No power flow data changed for load "1" at bus 23 [LOAD23      345.00]

 No power flow data changed for load "1" at bus 16 [LOAD16      345.00]

 No power flow data changed for load "1" at bus 18 [LOAD18      345.00]

 No power flow data changed for load "1" at bus 26 [LOAD26      345.00]

 Power flow data changed for load "1" at bus 29 [LOAD29      345.00]:
 X--ORIGINAL--X  X-NEW VALUE--X  DATA ITEM
   -132.355        -137.382      PL

 Channel output file is "./Cases/IEEE39_RE.out"

 42 diagonal and 70 off-diagonal elements

 No power flow data changed for load "1" at bus 12 [LOAD12      138.00]

 No power flow data changed for load "1" at bus 7 [LOAD7       345.00]

 No power flow data changed for load "1" at bus 8 [LOAD8       345.00]

 No power flow data changed for load "1" at bus 23 [LOAD23      345.00]

 No power flow data changed for load "1" at bus 16 [LOAD16      345.00]

 No power flow data changed for load "1" at bus 18 [LOAD18      345.00]

 No power flow data changed for load "1" at bus 26 [LOAD26      345.00]

 Power flow data changed for load "1" at bus 29 [LOAD29      345.00]:
 X--ORIGINAL--X  X-NEW VALUE--X  DATA ITEM
   -137.382        -138.955      PL

 Channel output file is "./Cases/IEEE39_RE.out"

 42 diagonal and 70 off-diagonal elements

 No power flow data changed for load "1" at bus 12 [LOAD12      138.00]

 No power flow data changed for load "1" at bus 7 [LOAD7       345.00]

 No power flow data changed for load "1" at bus 8 [LOAD8       345.00]

 No power flow data changed for load "1" at bus 23 [LOAD23      345.00]

 No power flow data changed for load "1" at bus 16 [LOAD16      345.00]

 No power flow data changed for load "1" at bus 18 [LOAD18      345.00]

 No power flow data changed for load "1" at bus 26 [LOAD26      345.00]

 Power flow data changed for load "1" at bus 29 [LOAD29      345.00]:
 X--ORIGINAL--X  X-NEW VALUE--X  DATA ITEM
   -138.955        -138.770      PL

 Channel output file is "./Cases/IEEE39_RE.out"

 42 diagonal and 70 off-diagonal elements

 No power flow data changed for load "1" at bus 12 [LOAD12      138.00]

 No power flow data changed for load "1" at bus 7 [LOAD7       345.00]

 No power flow data changed for load "1" at bus 8 [LOAD8       345.00]

 No power flow data changed for load "1" at bus 23 [LOAD23      345.00]

 No power flow data changed for load "1" at bus 16 [LOAD16      345.00]

 No power flow data changed for load "1" at bus 18 [LOAD18      345.00]

 No power flow data changed for load "1" at bus 26 [LOAD26      345.00]

 Power flow data changed for load "1" at bus 29 [LOAD29      345.00]:
 X--ORIGINAL--X  X-NEW VALUE--X  DATA ITEM
   -138.770        -136.120      PL

 Channel output file is "./Cases/IEEE39_RE.out"

 42 diagonal and 70 off-diagonal elements
 LTC DELAY TIMER STARTED AT                15 LOAD15       345.00 1  V= 1.0200 AT TIME=   5.026

 No power flow data changed for load "1" at bus 12 [LOAD12      138.00]

 No power flow data changed for load "1" at bus 7 [LOAD7       345.00]

 No power flow data changed for load "1" at bus 8 [LOAD8       345.00]

 No power flow data changed for load "1" at bus 23 [LOAD23      345.00]

 No power flow data changed for load "1" at bus 16 [LOAD16      345.00]

 No power flow data changed for load "1" at bus 18 [LOAD18      345.00]

 No power flow data changed for load "1" at bus 26 [LOAD26      345.00]

 Power flow data changed for load "1" at bus 29 [LOAD29      345.00]:
 X--ORIGINAL--X  X-NEW VALUE--X  DATA ITEM
   -136.120        -127.985      PL

 Channel output file is "./Cases/IEEE39_RE.out"

 42 diagonal and 70 off-diagonal elements
 LTC DELAY TIMER STARTED AT                24 LOAD24       345.00 1  V= 1.0200 AT TIME=   5.200

 No power flow data changed for load "1" at bus 12 [LOAD12      138.00]

 No power flow data changed for load "1" at bus 7 [LOAD7       345.00]

 No power flow data changed for load "1" at bus 8 [LOAD8       345.00]

 No power flow data changed for load "1" at bus 23 [LOAD23      345.00]

 No power flow data changed for load "1" at bus 16 [LOAD16      345.00]

 No power flow data changed for load "1" at bus 18 [LOAD18      345.00]

 No power flow data changed for load "1" at bus 26 [LOAD26      345.00]

 Power flow data changed for load "1" at bus 29 [LOAD29      345.00]:
 X--ORIGINAL--X  X-NEW VALUE--X  DATA ITEM
   -127.985        -111.025      PL

 Channel output file is "./Cases/IEEE39_RE.out"

 42 diagonal and 70 off-diagonal elements

 No power flow data changed for load "1" at bus 12 [LOAD12      138.00]

 No power flow data changed for load "1" at bus 7 [LOAD7       345.00]

 No power flow data changed for load "1" at bus 8 [LOAD8       345.00]

 No power flow data changed for load "1" at bus 23 [LOAD23      345.00]

 No power flow data changed for load "1" at bus 16 [LOAD16      345.00]

 No power flow data changed for load "1" at bus 18 [LOAD18      345.00]

 No power flow data changed for load "1" at bus 26 [LOAD26      345.00]

 Power flow data changed for load "1" at bus 29 [LOAD29      345.00]:
 X--ORIGINAL--X  X-NEW VALUE--X  DATA ITEM
   -111.025        -84.1476      PL

 Channel output file is "./Cases/IEEE39_RE.out"

 42 diagonal and 70 off-diagonal elements

 No power flow data changed for load "1" at bus 12 [LOAD12      138.00]

 No power flow data changed for load "1" at bus 7 [LOAD7       345.00]

 No power flow data changed for load "1" at bus 8 [LOAD8       345.00]

 No power flow data changed for load "1" at bus 23 [LOAD23      345.00]

 No power flow data changed for load "1" at bus 16 [LOAD16      345.00]

 No power flow data changed for load "1" at bus 18 [LOAD18      345.00]

 No power flow data changed for load "1" at bus 26 [LOAD26      345.00]

 Power flow data changed for load "1" at bus 29 [LOAD29      345.00]:
 X--ORIGINAL--X  X-NEW VALUE--X  DATA ITEM
   -84.1476        -50.0655      PL

 Channel output file is "./Cases/IEEE39_RE.out"

 42 diagonal and 70 off-diagonal elements

 No power flow data changed for load "1" at bus 12 [LOAD12      138.00]

 No power flow data changed for load "1" at bus 7 [LOAD7       345.00]

 No power flow data changed for load "1" at bus 8 [LOAD8       345.00]

 No power flow data changed for load "1" at bus 23 [LOAD23      345.00]

 No power flow data changed for load "1" at bus 16 [LOAD16      345.00]

 No power flow data changed for load "1" at bus 18 [LOAD18      345.00]

 No power flow data changed for load "1" at bus 26 [LOAD26      345.00]

 Power flow data changed for load "1" at bus 29 [LOAD29      345.00]:
 X--ORIGINAL--X  X-NEW VALUE--X  DATA ITEM
   -50.0655        -14.9307      PL

 Channel output file is "./Cases/IEEE39_RE.out"

 42 diagonal and 70 off-diagonal elements

 No power flow data changed for load "1" at bus 12 [LOAD12      138.00]

 No power flow data changed for load "1" at bus 7 [LOAD7       345.00]

 No power flow data changed for load "1" at bus 8 [LOAD8       345.00]

 No power flow data changed for load "1" at bus 23 [LOAD23      345.00]

 No power flow data changed for load "1" at bus 16 [LOAD16      345.00]

 No power flow data changed for load "1" at bus 18 [LOAD18      345.00]

 No power flow data changed for load "1" at bus 26 [LOAD26      345.00]

 Power flow data changed for load "1" at bus 29 [LOAD29      345.00]:
 X--ORIGINAL--X  X-NEW VALUE--X  DATA ITEM
   -14.9307         13.7391      PL

 Channel output file is "./Cases/IEEE39_RE.out"

 42 diagonal and 70 off-diagonal elements

 No power flow data changed for load "1" at bus 12 [LOAD12      138.00]

 No power flow data changed for load "1" at bus 7 [LOAD7       345.00]

 No power flow data changed for load "1" at bus 8 [LOAD8       345.00]

 No power flow data changed for load "1" at bus 23 [LOAD23      345.00]

 No power flow data changed for load "1" at bus 16 [LOAD16      345.00]

 No power flow data changed for load "1" at bus 18 [LOAD18      345.00]

 No power flow data changed for load "1" at bus 26 [LOAD26      345.00]

 Power flow data changed for load "1" at bus 29 [LOAD29      345.00]:
 X--ORIGINAL--X  X-NEW VALUE--X  DATA ITEM
    13.7391         29.7107      PL

 Channel output file is "./Cases/IEEE39_RE.out"

 42 diagonal and 70 off-diagonal elements

 No power flow data changed for load "1" at bus 12 [LOAD12      138.00]

 No power flow data changed for load "1" at bus 7 [LOAD7       345.00]

 No power flow data changed for load "1" at bus 8 [LOAD8       345.00]

 No power flow data changed for load "1" at bus 23 [LOAD23      345.00]

 No power flow data changed for load "1" at bus 16 [LOAD16      345.00]

 No power flow data changed for load "1" at bus 18 [LOAD18      345.00]

 No power flow data changed for load "1" at bus 26 [LOAD26      345.00]

 Power flow data changed for load "1" at bus 29 [LOAD29      345.00]:
 X--ORIGINAL--X  X-NEW VALUE--X  DATA ITEM
    29.7107         29.9092      PL

 Channel output file is "./Cases/IEEE39_RE.out"

 42 diagonal and 70 off-diagonal elements

 No power flow data changed for load "1" at bus 12 [LOAD12      138.00]

 No power flow data changed for load "1" at bus 7 [LOAD7       345.00]

 No power flow data changed for load "1" at bus 8 [LOAD8       345.00]

 No power flow data changed for load "1" at bus 23 [LOAD23      345.00]

 No power flow data changed for load "1" at bus 16 [LOAD16      345.00]

 No power flow data changed for load "1" at bus 18 [LOAD18      345.00]

 No power flow data changed for load "1" at bus 26 [LOAD26      345.00]

 Power flow data changed for load "1" at bus 29 [LOAD29      345.00]:
 X--ORIGINAL--X  X-NEW VALUE--X  DATA ITEM
    29.9092         14.7462      PL

 Channel output file is "./Cases/IEEE39_RE.out"

 42 diagonal and 70 off-diagonal elements
     LTC DELAY TIMER RESET

 No power flow data changed for load "1" at bus 12 [LOAD12      138.00]

 No power flow data changed for load "1" at bus 7 [LOAD7       345.00]

 No power flow data changed for load "1" at bus 8 [LOAD8       345.00]

 No power flow data changed for load "1" at bus 23 [LOAD23      345.00]

 No power flow data changed for load "1" at bus 16 [LOAD16      345.00]

 No power flow data changed for load "1" at bus 18 [LOAD18      345.00]

 No power flow data changed for load "1" at bus 26 [LOAD26      345.00]

 Power flow data changed for load "1" at bus 29 [LOAD29      345.00]:
 X--ORIGINAL--X  X-NEW VALUE--X  DATA ITEM
    14.7462        -12.8502      PL

 Channel output file is "./Cases/IEEE39_RE.out"

 42 diagonal and 70 off-diagonal elements
     LTC DELAY TIMER RESET

 No power flow data changed for load "1" at bus 12 [LOAD12      138.00]

 No power flow data changed for load "1" at bus 7 [LOAD7       345.00]

 No power flow data changed for load "1" at bus 8 [LOAD8       345.00]

 No power flow data changed for load "1" at bus 23 [LOAD23      345.00]

 No power flow data changed for load "1" at bus 16 [LOAD16      345.00]

 No power flow data changed for load "1" at bus 18 [LOAD18      345.00]

 No power flow data changed for load "1" at bus 26 [LOAD26      345.00]

 Power flow data changed for load "1" at bus 29 [LOAD29      345.00]:
 X--ORIGINAL--X  X-NEW VALUE--X  DATA ITEM
   -12.8502        -48.7850      PL

 Channel output file is "./Cases/IEEE39_RE.out"

 42 diagonal and 70 off-diagonal elements

 No power flow data changed for load "1" at bus 12 [LOAD12      138.00]

 No power flow data changed for load "1" at bus 7 [LOAD7       345.00]

 No power flow data changed for load "1" at bus 8 [LOAD8       345.00]

 No power flow data changed for load "1" at bus 23 [LOAD23      345.00]

 No power flow data changed for load "1" at bus 16 [LOAD16      345.00]

 No power flow data changed for load "1" at bus 18 [LOAD18      345.00]

 No power flow data changed for load "1" at bus 26 [LOAD26      345.00]

 Power flow data changed for load "1" at bus 29 [LOAD29      345.00]:
 X--ORIGINAL--X  X-NEW VALUE--X  DATA ITEM
   -48.7850        -88.7288      PL

 Channel output file is "./Cases/IEEE39_RE.out"

 42 diagonal and 70 off-diagonal elements

 No power flow data changed for load "1" at bus 12 [LOAD12      138.00]

 No power flow data changed for load "1" at bus 7 [LOAD7       345.00]

 No power flow data changed for load "1" at bus 8 [LOAD8       345.00]

 No power flow data changed for load "1" at bus 23 [LOAD23      345.00]

 No power flow data changed for load "1" at bus 16 [LOAD16      345.00]

 No power flow data changed for load "1" at bus 18 [LOAD18      345.00]

 No power flow data changed for load "1" at bus 26 [LOAD26      345.00]

 Power flow data changed for load "1" at bus 29 [LOAD29      345.00]:
 X--ORIGINAL--X  X-NEW VALUE--X  DATA ITEM
   -88.7288        -128.482      PL

 Channel output file is "./Cases/IEEE39_RE.out"

 42 diagonal and 70 off-diagonal elements

 No power flow data changed for load "1" at bus 12 [LOAD12      138.00]

 No power flow data changed for load "1" at bus 7 [LOAD7       345.00]

 No power flow data changed for load "1" at bus 8 [LOAD8       345.00]

 No power flow data changed for load "1" at bus 23 [LOAD23      345.00]

 No power flow data changed for load "1" at bus 16 [LOAD16      345.00]

 No power flow data changed for load "1" at bus 18 [LOAD18      345.00]

 No power flow data changed for load "1" at bus 26 [LOAD26      345.00]

 Power flow data changed for load "1" at bus 29 [LOAD29      345.00]:
 X--ORIGINAL--X  X-NEW VALUE--X  DATA ITEM
   -128.482        -164.104      PL

 Channel output file is "./Cases/IEEE39_RE.out"

 42 diagonal and 70 off-diagonal elements

 No power flow data changed for load "1" at bus 12 [LOAD12      138.00]

 No power flow data changed for load "1" at bus 7 [LOAD7       345.00]

 No power flow data changed for load "1" at bus 8 [LOAD8       345.00]

 No power flow data changed for load "1" at bus 23 [LOAD23      345.00]

 No power flow data changed for load "1" at bus 16 [LOAD16      345.00]

 No power flow data changed for load "1" at bus 18 [LOAD18      345.00]

 No power flow data changed for load "1" at bus 26 [LOAD26      345.00]

 Power flow data changed for load "1" at bus 29 [LOAD29      345.00]:
 X--ORIGINAL--X  X-NEW VALUE--X  DATA ITEM
   -164.104        -192.151      PL

 Channel output file is "./Cases/IEEE39_RE.out"

 42 diagonal and 70 off-diagonal elements
 LTC DELAY TIMER STARTED AT                24 LOAD24       345.00 1  V= 1.0000 AT TIME=   6.590

 No power flow data changed for load "1" at bus 12 [LOAD12      138.00]

 No power flow data changed for load "1" at bus 7 [LOAD7       345.00]

 No power flow data changed for load "1" at bus 8 [LOAD8       345.00]

 No power flow data changed for load "1" at bus 23 [LOAD23      345.00]

 No power flow data changed for load "1" at bus 16 [LOAD16      345.00]

 No power flow data changed for load "1" at bus 18 [LOAD18      345.00]

 No power flow data changed for load "1" at bus 26 [LOAD26      345.00]

 Power flow data changed for load "1" at bus 29 [LOAD29      345.00]:
 X--ORIGINAL--X  X-NEW VALUE--X  DATA ITEM
   -192.151        -210.077      PL

 Channel output file is "./Cases/IEEE39_RE.out"

 42 diagonal and 70 off-diagonal elements

 No power flow data changed for load "1" at bus 12 [LOAD12      138.00]

 No power flow data changed for load "1" at bus 7 [LOAD7       345.00]

 No power flow data changed for load "1" at bus 8 [LOAD8       345.00]

 No power flow data changed for load "1" at bus 23 [LOAD23      345.00]

 No power flow data changed for load "1" at bus 16 [LOAD16      345.00]

 No power flow data changed for load "1" at bus 18 [LOAD18      345.00]

 No power flow data changed for load "1" at bus 26 [LOAD26      345.00]

 Power flow data changed for load "1" at bus 29 [LOAD29      345.00]:
 X--ORIGINAL--X  X-NEW VALUE--X  DATA ITEM
   -210.077        -216.635      PL

 Channel output file is "./Cases/IEEE39_RE.out"

 42 diagonal and 70 off-diagonal elements

 No power flow data changed for load "1" at bus 12 [LOAD12      138.00]

 No power flow data changed for load "1" at bus 7 [LOAD7       345.00]

 No power flow data changed for load "1" at bus 8 [LOAD8       345.00]

 No power flow data changed for load "1" at bus 23 [LOAD23      345.00]

 No power flow data changed for load "1" at bus 16 [LOAD16      345.00]

 No power flow data changed for load "1" at bus 18 [LOAD18      345.00]

 No power flow data changed for load "1" at bus 26 [LOAD26      345.00]

 Power flow data changed for load "1" at bus 29 [LOAD29      345.00]:
 X--ORIGINAL--X  X-NEW VALUE--X  DATA ITEM
   -216.635        -212.022      PL

 Channel output file is "./Cases/IEEE39_RE.out"

 42 diagonal and 70 off-diagonal elements

 No power flow data changed for load "1" at bus 12 [LOAD12      138.00]

 No power flow data changed for load "1" at bus 7 [LOAD7       345.00]

 No power flow data changed for load "1" at bus 8 [LOAD8       345.00]

 No power flow data changed for load "1" at bus 23 [LOAD23      345.00]

 No power flow data changed for load "1" at bus 16 [LOAD16      345.00]

 No power flow data changed for load "1" at bus 18 [LOAD18      345.00]

 No power flow data changed for load "1" at bus 26 [LOAD26      345.00]

 Power flow data changed for load "1" at bus 29 [LOAD29      345.00]:
 X--ORIGINAL--X  X-NEW VALUE--X  DATA ITEM
   -212.022        -197.666      PL

 Channel output file is "./Cases/IEEE39_RE.out"

 42 diagonal and 70 off-diagonal elements

 No power flow data changed for load "1" at bus 12 [LOAD12      138.00]

 No power flow data changed for load "1" at bus 7 [LOAD7       345.00]

 No power flow data changed for load "1" at bus 8 [LOAD8       345.00]

 No power flow data changed for load "1" at bus 23 [LOAD23      345.00]

 No power flow data changed for load "1" at bus 16 [LOAD16      345.00]

 No power flow data changed for load "1" at bus 18 [LOAD18      345.00]

 No power flow data changed for load "1" at bus 26 [LOAD26      345.00]

 Power flow data changed for load "1" at bus 29 [LOAD29      345.00]:
 X--ORIGINAL--X  X-NEW VALUE--X  DATA ITEM
   -197.666        -175.758      PL

 Channel output file is "./Cases/IEEE39_RE.out"

 42 diagonal and 70 off-diagonal elements
     LTC DELAY TIMER RESET

 No power flow data changed for load "1" at bus 12 [LOAD12      138.00]

 No power flow data changed for load "1" at bus 7 [LOAD7       345.00]

 No power flow data changed for load "1" at bus 8 [LOAD8       345.00]

 No power flow data changed for load "1" at bus 23 [LOAD23      345.00]

 No power flow data changed for load "1" at bus 16 [LOAD16      345.00]

 No power flow data changed for load "1" at bus 18 [LOAD18      345.00]

 No power flow data changed for load "1" at bus 26 [LOAD26      345.00]

 Power flow data changed for load "1" at bus 29 [LOAD29      345.00]:
 X--ORIGINAL--X  X-NEW VALUE--X  DATA ITEM
   -175.758        -148.776      PL

 Channel output file is "./Cases/IEEE39_RE.out"

 42 diagonal and 70 off-diagonal elements

 No power flow data changed for load "1" at bus 12 [LOAD12      138.00]

 No power flow data changed for load "1" at bus 7 [LOAD7       345.00]

 No power flow data changed for load "1" at bus 8 [LOAD8       345.00]

 No power flow data changed for load "1" at bus 23 [LOAD23      345.00]

 No power flow data changed for load "1" at bus 16 [LOAD16      345.00]

 No power flow data changed for load "1" at bus 18 [LOAD18      345.00]

 No power flow data changed for load "1" at bus 26 [LOAD26      345.00]

 Power flow data changed for load "1" at bus 29 [LOAD29      345.00]:
 X--ORIGINAL--X  X-NEW VALUE--X  DATA ITEM
   -148.776        -119.196      PL

 Channel output file is "./Cases/IEEE39_RE.out"

 42 diagonal and 70 off-diagonal elements

 No power flow data changed for load "1" at bus 12 [LOAD12      138.00]

 No power flow data changed for load "1" at bus 7 [LOAD7       345.00]

 No power flow data changed for load "1" at bus 8 [LOAD8       345.00]

 No power flow data changed for load "1" at bus 23 [LOAD23      345.00]

 No power flow data changed for load "1" at bus 16 [LOAD16      345.00]

 No power flow data changed for load "1" at bus 18 [LOAD18      345.00]

 No power flow data changed for load "1" at bus 26 [LOAD26      345.00]

 Power flow data changed for load "1" at bus 29 [LOAD29      345.00]:
 X--ORIGINAL--X  X-NEW VALUE--X  DATA ITEM
   -119.196        -89.3143      PL

 Channel output file is "./Cases/IEEE39_RE.out"

 42 diagonal and 70 off-diagonal elements

 No power flow data changed for load "1" at bus 12 [LOAD12      138.00]

 No power flow data changed for load "1" at bus 7 [LOAD7       345.00]

 No power flow data changed for load "1" at bus 8 [LOAD8       345.00]

 No power flow data changed for load "1" at bus 23 [LOAD23      345.00]

 No power flow data changed for load "1" at bus 16 [LOAD16      345.00]

 No power flow data changed for load "1" at bus 18 [LOAD18      345.00]

 No power flow data changed for load "1" at bus 26 [LOAD26      345.00]

 Power flow data changed for load "1" at bus 29 [LOAD29      345.00]:
 X--ORIGINAL--X  X-NEW VALUE--X  DATA ITEM
   -89.3143        -61.0029      PL

 Channel output file is "./Cases/IEEE39_RE.out"

 42 diagonal and 70 off-diagonal elements

 No power flow data changed for load "1" at bus 12 [LOAD12      138.00]

 No power flow data changed for load "1" at bus 7 [LOAD7       345.00]

 No power flow data changed for load "1" at bus 8 [LOAD8       345.00]

 No power flow data changed for load "1" at bus 23 [LOAD23      345.00]

 No power flow data changed for load "1" at bus 16 [LOAD16      345.00]

 No power flow data changed for load "1" at bus 18 [LOAD18      345.00]

 No power flow data changed for load "1" at bus 26 [LOAD26      345.00]

 Power flow data changed for load "1" at bus 29 [LOAD29      345.00]:
 X--ORIGINAL--X  X-NEW VALUE--X  DATA ITEM
   -61.0029        -35.3247      PL

 Channel output file is "./Cases/IEEE39_RE.out"

 42 diagonal and 70 off-diagonal elements

 No power flow data changed for load "1" at bus 12 [LOAD12      138.00]

 No power flow data changed for load "1" at bus 7 [LOAD7       345.00]

 No power flow data changed for load "1" at bus 8 [LOAD8       345.00]

 No power flow data changed for load "1" at bus 23 [LOAD23      345.00]

 No power flow data changed for load "1" at bus 16 [LOAD16      345.00]

 No power flow data changed for load "1" at bus 18 [LOAD18      345.00]

 No power flow data changed for load "1" at bus 26 [LOAD26      345.00]

 Power flow data changed for load "1" at bus 29 [LOAD29      345.00]:
 X--ORIGINAL--X  X-NEW VALUE--X  DATA ITEM
   -35.3247        -12.2643      PL

 Channel output file is "./Cases/IEEE39_RE.out"

 42 diagonal and 70 off-diagonal elements
 LTC DELAY TIMER STARTED AT                15 LOAD15       345.00 1  V= 1.0200 AT TIME=   7.612

 No power flow data changed for load "1" at bus 12 [LOAD12      138.00]

 No power flow data changed for load "1" at bus 7 [LOAD7       345.00]

 No power flow data changed for load "1" at bus 8 [LOAD8       345.00]

 No power flow data changed for load "1" at bus 23 [LOAD23      345.00]

 No power flow data changed for load "1" at bus 16 [LOAD16      345.00]

 No power flow data changed for load "1" at bus 18 [LOAD18      345.00]

 No power flow data changed for load "1" at bus 26 [LOAD26      345.00]

 Power flow data changed for load "1" at bus 29 [LOAD29      345.00]:
 X--ORIGINAL--X  X-NEW VALUE--X  DATA ITEM
   -12.2643         9.03053      PL

 Channel output file is "./Cases/IEEE39_RE.out"

 42 diagonal and 70 off-diagonal elements
 LTC DELAY TIMER STARTED AT                24 LOAD24       345.00 1  V= 1.0200 AT TIME=   7.710

 No power flow data changed for load "1" at bus 12 [LOAD12      138.00]

 No power flow data changed for load "1" at bus 7 [LOAD7       345.00]

 No power flow data changed for load "1" at bus 8 [LOAD8       345.00]

 No power flow data changed for load "1" at bus 23 [LOAD23      345.00]

 No power flow data changed for load "1" at bus 16 [LOAD16      345.00]

 No power flow data changed for load "1" at bus 18 [LOAD18      345.00]

 No power flow data changed for load "1" at bus 26 [LOAD26      345.00]

 Power flow data changed for load "1" at bus 29 [LOAD29      345.00]:
 X--ORIGINAL--X  X-NEW VALUE--X  DATA ITEM
    9.03053         29.3392      PL

 Channel output file is "./Cases/IEEE39_RE.out"

 42 diagonal and 70 off-diagonal elements

 No power flow data changed for load "1" at bus 12 [LOAD12      138.00]

 No power flow data changed for load "1" at bus 7 [LOAD7       345.00]

 No power flow data changed for load "1" at bus 8 [LOAD8       345.00]

 No power flow data changed for load "1" at bus 23 [LOAD23      345.00]

 No power flow data changed for load "1" at bus 16 [LOAD16      345.00]

 No power flow data changed for load "1" at bus 18 [LOAD18      345.00]

 No power flow data changed for load "1" at bus 26 [LOAD26      345.00]

 Power flow data changed for load "1" at bus 29 [LOAD29      345.00]:
 X--ORIGINAL--X  X-NEW VALUE--X  DATA ITEM
    29.3392         48.1482      PL

 Channel output file is "./Cases/IEEE39_RE.out"

 42 diagonal and 70 off-diagonal elements

 No power flow data changed for load "1" at bus 12 [LOAD12      138.00]

 No power flow data changed for load "1" at bus 7 [LOAD7       345.00]

 No power flow data changed for load "1" at bus 8 [LOAD8       345.00]

 No power flow data changed for load "1" at bus 23 [LOAD23      345.00]

 No power flow data changed for load "1" at bus 16 [LOAD16      345.00]

 No power flow data changed for load "1" at bus 18 [LOAD18      345.00]

 No power flow data changed for load "1" at bus 26 [LOAD26      345.00]

 Power flow data changed for load "1" at bus 29 [LOAD29      345.00]:
 X--ORIGINAL--X  X-NEW VALUE--X  DATA ITEM
    48.1482         62.8609      PL

 Channel output file is "./Cases/IEEE39_RE.out"

 42 diagonal and 70 off-diagonal elements
     LTC DELAY TIMER RESET

 No power flow data changed for load "1" at bus 12 [LOAD12      138.00]

 No power flow data changed for load "1" at bus 7 [LOAD7       345.00]

 No power flow data changed for load "1" at bus 8 [LOAD8       345.00]

 No power flow data changed for load "1" at bus 23 [LOAD23      345.00]

 No power flow data changed for load "1" at bus 16 [LOAD16      345.00]

 No power flow data changed for load "1" at bus 18 [LOAD18      345.00]

 No power flow data changed for load "1" at bus 26 [LOAD26      345.00]

 Power flow data changed for load "1" at bus 29 [LOAD29      345.00]:
 X--ORIGINAL--X  X-NEW VALUE--X  DATA ITEM
    62.8609         69.0994      PL

 Channel output file is "./Cases/IEEE39_RE.out"

 42 diagonal and 70 off-diagonal elements
     LTC DELAY TIMER RESET

 No power flow data changed for load "1" at bus 12 [LOAD12      138.00]

 No power flow data changed for load "1" at bus 7 [LOAD7       345.00]

 No power flow data changed for load "1" at bus 8 [LOAD8       345.00]

 No power flow data changed for load "1" at bus 23 [LOAD23      345.00]

 No power flow data changed for load "1" at bus 16 [LOAD16      345.00]

 No power flow data changed for load "1" at bus 18 [LOAD18      345.00]

 No power flow data changed for load "1" at bus 26 [LOAD26      345.00]

 Power flow data changed for load "1" at bus 29 [LOAD29      345.00]:
 X--ORIGINAL--X  X-NEW VALUE--X  DATA ITEM
    69.0994         62.2310      PL

 Channel output file is "./Cases/IEEE39_RE.out"

 42 diagonal and 70 off-diagonal elements

 No power flow data changed for load "1" at bus 12 [LOAD12      138.00]

 No power flow data changed for load "1" at bus 7 [LOAD7       345.00]

 No power flow data changed for load "1" at bus 8 [LOAD8       345.00]

 No power flow data changed for load "1" at bus 23 [LOAD23      345.00]

 No power flow data changed for load "1" at bus 16 [LOAD16      345.00]

 No power flow data changed for load "1" at bus 18 [LOAD18      345.00]

 No power flow data changed for load "1" at bus 26 [LOAD26      345.00]

 Power flow data changed for load "1" at bus 29 [LOAD29      345.00]:
 X--ORIGINAL--X  X-NEW VALUE--X  DATA ITEM
    62.2310         39.6289      PL

 Channel output file is "./Cases/IEEE39_RE.out"

 42 diagonal and 70 off-diagonal elements

 No power flow data changed for load "1" at bus 12 [LOAD12      138.00]

 No power flow data changed for load "1" at bus 7 [LOAD7       345.00]

 No power flow data changed for load "1" at bus 8 [LOAD8       345.00]

 No power flow data changed for load "1" at bus 23 [LOAD23      345.00]

 No power flow data changed for load "1" at bus 16 [LOAD16      345.00]

 No power flow data changed for load "1" at bus 18 [LOAD18      345.00]

 No power flow data changed for load "1" at bus 26 [LOAD26      345.00]

 Power flow data changed for load "1" at bus 29 [LOAD29      345.00]:
 X--ORIGINAL--X  X-NEW VALUE--X  DATA ITEM
    39.6289         2.76025      PL

 Channel output file is "./Cases/IEEE39_RE.out"

 42 diagonal and 70 off-diagonal elements

 No power flow data changed for load "1" at bus 12 [LOAD12      138.00]

 No power flow data changed for load "1" at bus 7 [LOAD7       345.00]

 No power flow data changed for load "1" at bus 8 [LOAD8       345.00]

 No power flow data changed for load "1" at bus 23 [LOAD23      345.00]

 No power flow data changed for load "1" at bus 16 [LOAD16      345.00]

 No power flow data changed for load "1" at bus 18 [LOAD18      345.00]

 No power flow data changed for load "1" at bus 26 [LOAD26      345.00]

 Power flow data changed for load "1" at bus 29 [LOAD29      345.00]:
 X--ORIGINAL--X  X-NEW VALUE--X  DATA ITEM
    2.76025        -41.9000      PL

 Channel output file is "./Cases/IEEE39_RE.out"

 42 diagonal and 70 off-diagonal elements
 LTC DELAY TIMER STARTED AT                24 LOAD24       345.00 1  V= 0.9999 AT TIME=   8.550

 No power flow data changed for load "1" at bus 12 [LOAD12      138.00]

 No power flow data changed for load "1" at bus 7 [LOAD7       345.00]

 No power flow data changed for load "1" at bus 8 [LOAD8       345.00]

 No power flow data changed for load "1" at bus 23 [LOAD23      345.00]

 No power flow data changed for load "1" at bus 16 [LOAD16      345.00]

 No power flow data changed for load "1" at bus 18 [LOAD18      345.00]

 No power flow data changed for load "1" at bus 26 [LOAD26      345.00]

 Power flow data changed for load "1" at bus 29 [LOAD29      345.00]:
 X--ORIGINAL--X  X-NEW VALUE--X  DATA ITEM
   -41.9000        -83.8054      PL

 Channel output file is "./Cases/IEEE39_RE.out"

 42 diagonal and 70 off-diagonal elements
 LTC DELAY TIMER STARTED AT                15 LOAD15       345.00 1  V= 1.0000 AT TIME=   8.626

 No power flow data changed for load "1" at bus 12 [LOAD12      138.00]

 No power flow data changed for load "1" at bus 7 [LOAD7       345.00]

 No power flow data changed for load "1" at bus 8 [LOAD8       345.00]

 No power flow data changed for load "1" at bus 23 [LOAD23      345.00]

 No power flow data changed for load "1" at bus 16 [LOAD16      345.00]

 No power flow data changed for load "1" at bus 18 [LOAD18      345.00]

 No power flow data changed for load "1" at bus 26 [LOAD26      345.00]

 Power flow data changed for load "1" at bus 29 [LOAD29      345.00]:
 X--ORIGINAL--X  X-NEW VALUE--X  DATA ITEM
   -83.8054        -111.023      PL

 Channel output file is "./Cases/IEEE39_RE.out"

 42 diagonal and 70 off-diagonal elements

 No power flow data changed for load "1" at bus 12 [LOAD12      138.00]

 No power flow data changed for load "1" at bus 7 [LOAD7       345.00]

 No power flow data changed for load "1" at bus 8 [LOAD8       345.00]

 No power flow data changed for load "1" at bus 23 [LOAD23      345.00]

 No power flow data changed for load "1" at bus 16 [LOAD16      345.00]

 No power flow data changed for load "1" at bus 18 [LOAD18      345.00]

 No power flow data changed for load "1" at bus 26 [LOAD26      345.00]

 Power flow data changed for load "1" at bus 29 [LOAD29      345.00]:
 X--ORIGINAL--X  X-NEW VALUE--X  DATA ITEM
   -111.023        -113.658      PL

 Channel output file is "./Cases/IEEE39_RE.out"

 42 diagonal and 70 off-diagonal elements

 No power flow data changed for load "1" at bus 12 [LOAD12      138.00]

 No power flow data changed for load "1" at bus 7 [LOAD7       345.00]

 No power flow data changed for load "1" at bus 8 [LOAD8       345.00]

 No power flow data changed for load "1" at bus 23 [LOAD23      345.00]

 No power flow data changed for load "1" at bus 16 [LOAD16      345.00]

 No power flow data changed for load "1" at bus 18 [LOAD18      345.00]

 No power flow data changed for load "1" at bus 26 [LOAD26      345.00]

 Power flow data changed for load "1" at bus 29 [LOAD29      345.00]:
 X--ORIGINAL--X  X-NEW VALUE--X  DATA ITEM
   -113.658        -86.6282      PL

 Channel output file is "./Cases/IEEE39_RE.out"

 42 diagonal and 70 off-diagonal elements

 No power flow data changed for load "1" at bus 12 [LOAD12      138.00]

 No power flow data changed for load "1" at bus 7 [LOAD7       345.00]

 No power flow data changed for load "1" at bus 8 [LOAD8       345.00]

 No power flow data changed for load "1" at bus 23 [LOAD23      345.00]

 No power flow data changed for load "1" at bus 16 [LOAD16      345.00]

 No power flow data changed for load "1" at bus 18 [LOAD18      345.00]

 No power flow data changed for load "1" at bus 26 [LOAD26      345.00]

 Power flow data changed for load "1" at bus 29 [LOAD29      345.00]:
 X--ORIGINAL--X  X-NEW VALUE--X  DATA ITEM
   -86.6282        -30.8572      PL

 Channel output file is "./Cases/IEEE39_RE.out"

 42 diagonal and 70 off-diagonal elements

 No power flow data changed for load "1" at bus 12 [LOAD12      138.00]

 No power flow data changed for load "1" at bus 7 [LOAD7       345.00]

 No power flow data changed for load "1" at bus 8 [LOAD8       345.00]

 No power flow data changed for load "1" at bus 23 [LOAD23      345.00]

 No power flow data changed for load "1" at bus 16 [LOAD16      345.00]

 No power flow data changed for load "1" at bus 18 [LOAD18      345.00]

 No power flow data changed for load "1" at bus 26 [LOAD26      345.00]

[...]

 No power flow data changed for load "1" at bus 7 [LOAD7       345.00]

 No power flow data changed for load "1" at bus 8 [LOAD8       345.00]

 No power flow data changed for load "1" at bus 23 [LOAD23      345.00]

 No power flow data changed for load "1" at bus 16 [LOAD16      345.00]

 No power flow data changed for load "1" at bus 18 [LOAD18      345.00]

 No power flow data changed for load "1" at bus 26 [LOAD26      345.00]

 Power flow data changed for load "1" at bus 29 [LOAD29      345.00]:
 X--ORIGINAL--X  X-NEW VALUE--X  DATA ITEM
    167.103         206.301      PL

 Channel output file is "./Cases/IEEE39_RE.out"

 42 diagonal and 70 off-diagonal elements

 No power flow data changed for load "1" at bus 12 [LOAD12      138.00]

 No power flow data changed for load "1" at bus 7 [LOAD7       345.00]

 No power flow data changed for load "1" at bus 8 [LOAD8       345.00]

 No power flow data changed for load "1" at bus 23 [LOAD23      345.00]

 No power flow data changed for load "1" at bus 16 [LOAD16      345.00]

 No power flow data changed for load "1" at bus 18 [LOAD18      345.00]

 No power flow data changed for load "1" at bus 26 [LOAD26      345.00]

 Power flow data changed for load "1" at bus 29 [LOAD29      345.00]:
 X--ORIGINAL--X  X-NEW VALUE--X  DATA ITEM
    206.301         227.425      PL

 Channel output file is "./Cases/IEEE39_RE.out"

 42 diagonal and 70 off-diagonal elements
     LTC DELAY TIMER RESET

 No power flow data changed for load "1" at bus 12 [LOAD12      138.00]

 No power flow data changed for load "1" at bus 7 [LOAD7       345.00]

 No power flow data changed for load "1" at bus 8 [LOAD8       345.00]

 No power flow data changed for load "1" at bus 23 [LOAD23      345.00]

 No power flow data changed for load "1" at bus 16 [LOAD16      345.00]

 No power flow data changed for load "1" at bus 18 [LOAD18      345.00]

 No power flow data changed for load "1" at bus 26 [LOAD26      345.00]

 Power flow data changed for load "1" at bus 29 [LOAD29      345.00]:
 X--ORIGINAL--X  X-NEW VALUE--X  DATA ITEM
    227.425         218.927      PL

 Channel output file is "./Cases/IEEE39_RE.out"

 42 diagonal and 70 off-diagonal elements
     LTC DELAY TIMER RESET

 No power flow data changed for load "1" at bus 12 [LOAD12      138.00]

 No power flow data changed for load "1" at bus 7 [LOAD7       345.00]

 No power flow data changed for load "1" at bus 8 [LOAD8       345.00]

 No power flow data changed for load "1" at bus 23 [LOAD23      345.00]

 No power flow data changed for load "1" at bus 16 [LOAD16      345.00]

 No power flow data changed for load "1" at bus 18 [LOAD18      345.00]

 No power flow data changed for load "1" at bus 26 [LOAD26      345.00]

 Power flow data changed for load "1" at bus 29 [LOAD29      345.00]:
 X--ORIGINAL--X  X-NEW VALUE--X  DATA ITEM
    218.927         175.689      PL

 Channel output file is "./Cases/IEEE39_RE.out"

 42 diagonal and 70 off-diagonal elements

 No power flow data changed for load "1" at bus 12 [LOAD12      138.00]

 No power flow data changed for load "1" at bus 7 [LOAD7       345.00]

 No power flow data changed for load "1" at bus 8 [LOAD8       345.00]

 No power flow data changed for load "1" at bus 23 [LOAD23      345.00]

 No power flow data changed for load "1" at bus 16 [LOAD16      345.00]

 No power flow data changed for load "1" at bus 18 [LOAD18      345.00]

 No power flow data changed for load "1" at bus 26 [LOAD26      345.00]

 Power flow data changed for load "1" at bus 29 [LOAD29      345.00]:
 X--ORIGINAL--X  X-NEW VALUE--X  DATA ITEM
    175.689         100.957      PL

 Channel output file is "./Cases/IEEE39_RE.out"

 42 diagonal and 70 off-diagonal elements

 No power flow data changed for load "1" at bus 12 [LOAD12      138.00]

 No power flow data changed for load "1" at bus 7 [LOAD7       345.00]

 No power flow data changed for load "1" at bus 8 [LOAD8       345.00]

 No power flow data changed for load "1" at bus 23 [LOAD23      345.00]

 No power flow data changed for load "1" at bus 16 [LOAD16      345.00]

 No power flow data changed for load "1" at bus 18 [LOAD18      345.00]

 No power flow data changed for load "1" at bus 26 [LOAD26      345.00]

 Power flow data changed for load "1" at bus 29 [LOAD29      345.00]:
 X--ORIGINAL--X  X-NEW VALUE--X  DATA ITEM
    100.957         6.18001      PL

 Channel output file is "./Cases/IEEE39_RE.out"

 42 diagonal and 70 off-diagonal elements

 No power flow data changed for load "1" at bus 12 [LOAD12      138.00]

 No power flow data changed for load "1" at bus 7 [LOAD7       345.00]

 No power flow data changed for load "1" at bus 8 [LOAD8       345.00]

 No power flow data changed for load "1" at bus 23 [LOAD23      345.00]

 No power flow data changed for load "1" at bus 16 [LOAD16      345.00]

 No power flow data changed for load "1" at bus 18 [LOAD18      345.00]

 No power flow data changed for load "1" at bus 26 [LOAD26      345.00]

 Power flow data changed for load "1" at bus 29 [LOAD29      345.00]:
 X--ORIGINAL--X  X-NEW VALUE--X  DATA ITEM
    6.18001        -91.2589      PL

 Channel output file is "./Cases/IEEE39_RE.out"

 42 diagonal and 70 off-diagonal elements
 LTC DELAY TIMER STARTED AT                24 LOAD24       345.00 1  V= 0.9999 AT TIME=  48.097

 No power flow data changed for load "1" at bus 12 [LOAD12      138.00]

 No power flow data changed for load "1" at bus 7 [LOAD7       345.00]

 No power flow data changed for load "1" at bus 8 [LOAD8       345.00]

 No power flow data changed for load "1" at bus 23 [LOAD23      345.00]

 No power flow data changed for load "1" at bus 16 [LOAD16      345.00]

 No power flow data changed for load "1" at bus 18 [LOAD18      345.00]

 No power flow data changed for load "1" at bus 26 [LOAD26      345.00]

 Power flow data changed for load "1" at bus 29 [LOAD29      345.00]:
 X--ORIGINAL--X  X-NEW VALUE--X  DATA ITEM
   -91.2589        -172.012      PL

 Channel output file is "./Cases/IEEE39_RE.out"

 42 diagonal and 70 off-diagonal elements

 No power flow data changed for load "1" at bus 12 [LOAD12      138.00]

 No power flow data changed for load "1" at bus 7 [LOAD7       345.00]

 No power flow data changed for load "1" at bus 8 [LOAD8       345.00]

 No power flow data changed for load "1" at bus 23 [LOAD23      345.00]

 No power flow data changed for load "1" at bus 16 [LOAD16      345.00]

 No power flow data changed for load "1" at bus 18 [LOAD18      345.00]

 No power flow data changed for load "1" at bus 26 [LOAD26      345.00]

 Power flow data changed for load "1" at bus 29 [LOAD29      345.00]:
 X--ORIGINAL--X  X-NEW VALUE--X  DATA ITEM
   -172.012        -219.554      PL

 Channel output file is "./Cases/IEEE39_RE.out"

 42 diagonal and 70 off-diagonal elements
 LTC DELAY TIMER STARTED AT                15 LOAD15       345.00 1  V= 0.9999 AT TIME=  48.207

 No power flow data changed for load "1" at bus 12 [LOAD12      138.00]

 No power flow data changed for load "1" at bus 7 [LOAD7       345.00]

 No power flow data changed for load "1" at bus 8 [LOAD8       345.00]

 No power flow data changed for load "1" at bus 23 [LOAD23      345.00]

 No power flow data changed for load "1" at bus 16 [LOAD16      345.00]

 No power flow data changed for load "1" at bus 18 [LOAD18      345.00]

 No power flow data changed for load "1" at bus 26 [LOAD26      345.00]

 Power flow data changed for load "1" at bus 29 [LOAD29      345.00]:
 X--ORIGINAL--X  X-NEW VALUE--X  DATA ITEM
   -219.554        -224.502      PL

 Channel output file is "./Cases/IEEE39_RE.out"

 42 diagonal and 70 off-diagonal elements

 No power flow data changed for load "1" at bus 12 [LOAD12      138.00]

 No power flow data changed for load "1" at bus 7 [LOAD7       345.00]

 No power flow data changed for load "1" at bus 8 [LOAD8       345.00]

 No power flow data changed for load "1" at bus 23 [LOAD23      345.00]

 No power flow data changed for load "1" at bus 16 [LOAD16      345.00]

 No power flow data changed for load "1" at bus 18 [LOAD18      345.00]

 No power flow data changed for load "1" at bus 26 [LOAD26      345.00]

 Power flow data changed for load "1" at bus 29 [LOAD29      345.00]:
 X--ORIGINAL--X  X-NEW VALUE--X  DATA ITEM
   -224.502        -187.151      PL

 Channel output file is "./Cases/IEEE39_RE.out"

 42 diagonal and 70 off-diagonal elements
     LTC DELAY TIMER RESET

 No power flow data changed for load "1" at bus 12 [LOAD12      138.00]

 No power flow data changed for load "1" at bus 7 [LOAD7       345.00]

 No power flow data changed for load "1" at bus 8 [LOAD8       345.00]

 No power flow data changed for load "1" at bus 23 [LOAD23      345.00]

 No power flow data changed for load "1" at bus 16 [LOAD16      345.00]

 No power flow data changed for load "1" at bus 18 [LOAD18      345.00]

 No power flow data changed for load "1" at bus 26 [LOAD26      345.00]

 Power flow data changed for load "1" at bus 29 [LOAD29      345.00]:
 X--ORIGINAL--X  X-NEW VALUE--X  DATA ITEM
   -187.151        -117.367      PL

 Channel output file is "./Cases/IEEE39_RE.out"

 42 diagonal and 70 off-diagonal elements
     LTC DELAY TIMER RESET

 No power flow data changed for load "1" at bus 12 [LOAD12      138.00]

 No power flow data changed for load "1" at bus 7 [LOAD7       345.00]

 No power flow data changed for load "1" at bus 8 [LOAD8       345.00]

 No power flow data changed for load "1" at bus 23 [LOAD23      345.00]

 No power flow data changed for load "1" at bus 16 [LOAD16      345.00]

 No power flow data changed for load "1" at bus 18 [LOAD18      345.00]

 No power flow data changed for load "1" at bus 26 [LOAD26      345.00]

 Power flow data changed for load "1" at bus 29 [LOAD29      345.00]:
 X--ORIGINAL--X  X-NEW VALUE--X  DATA ITEM
   -117.367        -31.9019      PL

 Channel output file is "./Cases/IEEE39_RE.out"

 42 diagonal and 70 off-diagonal elements

 No power flow data changed for load "1" at bus 12 [LOAD12      138.00]

 No power flow data changed for load "1" at bus 7 [LOAD7       345.00]

 No power flow data changed for load "1" at bus 8 [LOAD8       345.00]

 No power flow data changed for load "1" at bus 23 [LOAD23      345.00]

 No power flow data changed for load "1" at bus 16 [LOAD16      345.00]

 No power flow data changed for load "1" at bus 18 [LOAD18      345.00]

 No power flow data changed for load "1" at bus 26 [LOAD26      345.00]

 Power flow data changed for load "1" at bus 29 [LOAD29      345.00]:
 X--ORIGINAL--X  X-NEW VALUE--X  DATA ITEM
   -31.9019         49.9272      PL

 Channel output file is "./Cases/IEEE39_RE.out"

 42 diagonal and 70 off-diagonal elements

 No power flow data changed for load "1" at bus 12 [LOAD12      138.00]

 No power flow data changed for load "1" at bus 7 [LOAD7       345.00]

 No power flow data changed for load "1" at bus 8 [LOAD8       345.00]

 No power flow data changed for load "1" at bus 23 [LOAD23      345.00]

 No power flow data changed for load "1" at bus 16 [LOAD16      345.00]

 No power flow data changed for load "1" at bus 18 [LOAD18      345.00]

 No power flow data changed for load "1" at bus 26 [LOAD26      345.00]

 Power flow data changed for load "1" at bus 29 [LOAD29      345.00]:
 X--ORIGINAL--X  X-NEW VALUE--X  DATA ITEM
    49.9272         110.748      PL

 Channel output file is "./Cases/IEEE39_RE.out"

 42 diagonal and 70 off-diagonal elements

 No power flow data changed for load "1" at bus 12 [LOAD12      138.00]

 No power flow data changed for load "1" at bus 7 [LOAD7       345.00]

 No power flow data changed for load "1" at bus 8 [LOAD8       345.00]

 No power flow data changed for load "1" at bus 23 [LOAD23      345.00]

 No power flow data changed for load "1" at bus 16 [LOAD16      345.00]

 No power flow data changed for load "1" at bus 18 [LOAD18      345.00]

 No power flow data changed for load "1" at bus 26 [LOAD26      345.00]

 Power flow data changed for load "1" at bus 29 [LOAD29      345.00]:
 X--ORIGINAL--X  X-NEW VALUE--X  DATA ITEM
    110.748         138.648      PL

 Channel output file is "./Cases/IEEE39_RE.out"

 42 diagonal and 70 off-diagonal elements

 No power flow data changed for load "1" at bus 12 [LOAD12      138.00]

 No power flow data changed for load "1" at bus 7 [LOAD7       345.00]

 No power flow data changed for load "1" at bus 8 [LOAD8       345.00]

 No power flow data changed for load "1" at bus 23 [LOAD23      345.00]

 No power flow data changed for load "1" at bus 16 [LOAD16      345.00]

 No power flow data changed for load "1" at bus 18 [LOAD18      345.00]

 No power flow data changed for load "1" at bus 26 [LOAD26      345.00]

 Power flow data changed for load "1" at bus 29 [LOAD29      345.00]:
 X--ORIGINAL--X  X-NEW VALUE--X  DATA ITEM
    138.648         129.138      PL

 Channel output file is "./Cases/IEEE39_RE.out"

 42 diagonal and 70 off-diagonal elements
 LTC DELAY TIMER STARTED AT                15 LOAD15       345.00 1  V= 1.0200 AT TIME=  49.020
 LTC DELAY TIMER STARTED AT                24 LOAD24       345.00 1  V= 1.0201 AT TIME=  49.062

 No power flow data changed for load "1" at bus 12 [LOAD12      138.00]

 No power flow data changed for load "1" at bus 7 [LOAD7       345.00]

 No power flow data changed for load "1" at bus 8 [LOAD8       345.00]

 No power flow data changed for load "1" at bus 23 [LOAD23      345.00]

 No power flow data changed for load "1" at bus 16 [LOAD16      345.00]

 No power flow data changed for load "1" at bus 18 [LOAD18      345.00]

 No power flow data changed for load "1" at bus 26 [LOAD26      345.00]

 Power flow data changed for load "1" at bus 29 [LOAD29      345.00]:
 X--ORIGINAL--X  X-NEW VALUE--X  DATA ITEM
    129.138         85.5709      PL

 Channel output file is "./Cases/IEEE39_RE.out"

 42 diagonal and 70 off-diagonal elements

 No power flow data changed for load "1" at bus 12 [LOAD12      138.00]

 No power flow data changed for load "1" at bus 7 [LOAD7       345.00]

 No power flow data changed for load "1" at bus 8 [LOAD8       345.00]

 No power flow data changed for load "1" at bus 23 [LOAD23      345.00]

 No power flow data changed for load "1" at bus 16 [LOAD16      345.00]

 No power flow data changed for load "1" at bus 18 [LOAD18      345.00]

 No power flow data changed for load "1" at bus 26 [LOAD26      345.00]

 Power flow data changed for load "1" at bus 29 [LOAD29      345.00]:
 X--ORIGINAL--X  X-NEW VALUE--X  DATA ITEM
    85.5709         18.0689      PL

 Channel output file is "./Cases/IEEE39_RE.out"

 42 diagonal and 70 off-diagonal elements

 No power flow data changed for load "1" at bus 12 [LOAD12      138.00]

 No power flow data changed for load "1" at bus 7 [LOAD7       345.00]

 No power flow data changed for load "1" at bus 8 [LOAD8       345.00]

 No power flow data changed for load "1" at bus 23 [LOAD23      345.00]

 No power flow data changed for load "1" at bus 16 [LOAD16      345.00]

 No power flow data changed for load "1" at bus 18 [LOAD18      345.00]

 No power flow data changed for load "1" at bus 26 [LOAD26      345.00]

 Power flow data changed for load "1" at bus 29 [LOAD29      345.00]:
 X--ORIGINAL--X  X-NEW VALUE--X  DATA ITEM
    18.0689        -59.0297      PL

 Channel output file is "./Cases/IEEE39_RE.out"

 42 diagonal and 70 off-diagonal elements

 No power flow data changed for load "1" at bus 12 [LOAD12      138.00]

 No power flow data changed for load "1" at bus 7 [LOAD7       345.00]

 No power flow data changed for load "1" at bus 8 [LOAD8       345.00]

 No power flow data changed for load "1" at bus 23 [LOAD23      345.00]

 No power flow data changed for load "1" at bus 16 [LOAD16      345.00]

 No power flow data changed for load "1" at bus 18 [LOAD18      345.00]

 No power flow data changed for load "1" at bus 26 [LOAD26      345.00]

 Power flow data changed for load "1" at bus 29 [LOAD29      345.00]:
 X--ORIGINAL--X  X-NEW VALUE--X  DATA ITEM
   -59.0297        -130.883      PL

 Channel output file is "./Cases/IEEE39_RE.out"

 42 diagonal and 70 off-diagonal elements

 No power flow data changed for load "1" at bus 12 [LOAD12      138.00]

 No power flow data changed for load "1" at bus 7 [LOAD7       345.00]

 No power flow data changed for load "1" at bus 8 [LOAD8       345.00]

 No power flow data changed for load "1" at bus 23 [LOAD23      345.00]

 No power flow data changed for load "1" at bus 16 [LOAD16      345.00]

 No power flow data changed for load "1" at bus 18 [LOAD18      345.00]

 No power flow data changed for load "1" at bus 26 [LOAD26      345.00]

 Power flow data changed for load "1" at bus 29 [LOAD29      345.00]:
 X--ORIGINAL--X  X-NEW VALUE--X  DATA ITEM
   -130.883        -186.018      PL

 Channel output file is "./Cases/IEEE39_RE.out"

 42 diagonal and 70 off-diagonal elements

 No power flow data changed for load "1" at bus 12 [LOAD12      138.00]

 No power flow data changed for load "1" at bus 7 [LOAD7       345.00]

 No power flow data changed for load "1" at bus 8 [LOAD8       345.00]

 No power flow data changed for load "1" at bus 23 [LOAD23      345.00]

 No power flow data changed for load "1" at bus 16 [LOAD16      345.00]

 No power flow data changed for load "1" at bus 18 [LOAD18      345.00]

 No power flow data changed for load "1" at bus 26 [LOAD26      345.00]

 Power flow data changed for load "1" at bus 29 [LOAD29      345.00]:
 X--ORIGINAL--X  X-NEW VALUE--X  DATA ITEM
   -186.018        -218.896      PL

 Channel output file is "./Cases/IEEE39_RE.out"

 42 diagonal and 70 off-diagonal elements

 No power flow data changed for load "1" at bus 12 [LOAD12      138.00]

 No power flow data changed for load "1" at bus 7 [LOAD7       345.00]

 No power flow data changed for load "1" at bus 8 [LOAD8       345.00]

 No power flow data changed for load "1" at bus 23 [LOAD23      345.00]

 No power flow data changed for load "1" at bus 16 [LOAD16      345.00]

 No power flow data changed for load "1" at bus 18 [LOAD18      345.00]

 No power flow data changed for load "1" at bus 26 [LOAD26      345.00]

 Power flow data changed for load "1" at bus 29 [LOAD29      345.00]:
 X--ORIGINAL--X  X-NEW VALUE--X  DATA ITEM
   -218.896        -230.091      PL

 Channel output file is "./Cases/IEEE39_RE.out"

 42 diagonal and 70 off-diagonal elements

 No power flow data changed for load "1" at bus 12 [LOAD12      138.00]

 No power flow data changed for load "1" at bus 7 [LOAD7       345.00]

 No power flow data changed for load "1" at bus 8 [LOAD8       345.00]

 No power flow data changed for load "1" at bus 23 [LOAD23      345.00]

 No power flow data changed for load "1" at bus 16 [LOAD16      345.00]

 No power flow data changed for load "1" at bus 18 [LOAD18      345.00]

 No power flow data changed for load "1" at bus 26 [LOAD26      345.00]

 Power flow data changed for load "1" at bus 29 [LOAD29      345.00]:
 X--ORIGINAL--X  X-NEW VALUE--X  DATA ITEM
   -230.091        -224.121      PL

 Channel output file is "./Cases/IEEE39_RE.out"

 42 diagonal and 70 off-diagonal elements

 No power flow data changed for load "1" at bus 12 [LOAD12      138.00]

 No power flow data changed for load "1" at bus 7 [LOAD7       345.00]

 No power flow data changed for load "1" at bus 8 [LOAD8       345.00]

 No power flow data changed for load "1" at bus 23 [LOAD23      345.00]

 No power flow data changed for load "1" at bus 16 [LOAD16      345.00]

 No power flow data changed for load "1" at bus 18 [LOAD18      345.00]

 No power flow data changed for load "1" at bus 26 [LOAD26      345.00]

 Power flow data changed for load "1" at bus 29 [LOAD29      345.00]:
 X--ORIGINAL--X  X-NEW VALUE--X  DATA ITEM
   -224.121        -206.200      PL

 Channel output file is "./Cases/IEEE39_RE.out"

 42 diagonal and 70 off-diagonal elements
