
 PSS(R)E Version 35
 Copyright (c) 1976-2026
 Siemens Industry, Inc.,
 Power Technologies International                            (PTI)
 This program is a confidential  unpublished  work  created  and  first
 licensed in 1976.  It is a trade secret which is the property of  PTI.
 All use,  disclosure,  and/or reproduction not specifically authorized
 by  PTI  is prohibited.   This  program is protected  under  copyright
 laws  of  non-U.S.  countries  and  by  application  of  international
 treaties.  All  Rights  Reserved  Under  The  Copyright  Laws.


           SIEMENS POWER TECHNOLOGIES INTERNATIONAL

      20000 BUS POWER SYSTEM SIMULATOR--PSS(R)E-35.5.0

             INITIATED ON THU, APR 09 2026  15:10

 NEW ENGLAND TEST SYSTEM, 39 BUSES, 9 GENERATORS, 2 AREAS, 4
 UPDATED BY JOSE CONTO


 Power flow solution parameters changed:
 X--ORIGINAL--X  X-NEW VALUE--X  DATA ITEM
         20             100      ITMXN

 10 loads converted during this step

 9 loads converted during this step

 19 of 19 loads converted

  ITER       DELTAP      BUS         DELTAQ      BUS        DELTA/V/      BUS       DELTAANG      BUS
   0.0       0.0001(      6     )    0.0000(      8     )
                                                             0.00000(            )   0.00000(     31     )
   0.5       0.0000(     31     )    0.0000(     31     )
                                                             0.00000(     31     )   0.00000(            )
   1.0       0.0000(      6     )    0.0000(     31     )


 Reached tolerance in 1 iterations

 Largest mismatch:     -0.00 MW     -0.00 Mvar      0.00 MVA at bus 6 [BUS6        345.00]
 System total absolute mismatch:                    0.00 MVA

 SWING BUS SUMMARY:
   BUS#-SCT X-- NAME --X BASKV      PGEN     PMAX    PMIN      QGEN     QMAX    QMIN
     39     GEN39       345.00     708.5   1090.0     0.0     115.9    574.8  -173.3

 Generator conversion completed using ZSORCE
 Diagonals = 42   Off-diagonals = 70   Maximum size = 98

 42 diagonal and 70 off-diagonal elements

 ITER DELTAV/TOL X----------- AT BUS -----------X  REAL(DELTAV)  IMAG(DELTAV)
    1     0.015      31     [GEN31       34.500]    0.1491E-06    0.6691E-08

 Reached tolerance in 1 iterations

 Largest mismatch:      0.01 MW      0.03 Mvar      0.03 MVA at bus 39 [GEN39       345.00]
 System total absolute mismatch:                    0.06 MVA

 ITER DELTAV/TOL X----------- AT BUS -----------X  REAL(DELTAV)  IMAG(DELTAV)
    1     0.001       8     [LOAD8       345.00]    0.5288E-08   -0.5221E-08

 Reached tolerance in 1 iterations

 Largest mismatch:      0.01 MW      0.03 Mvar      0.03 MVA at bus 39 [GEN39       345.00]
 System total absolute mismatch:                    0.06 MVA


 Model "REGCAU1" at bus 40     [RE40_2      345.00] converted to Model "REGCA1"

 Model "REECAU1" at bus 40     [RE40_2      345.00] converted to Model "REECA1"

 Model "REPCAU1" at bus 40     [RE40_2      345.00] converted to Model "REPCA1"

 Model "REGCAU1" at bus 41     [RE41_29     345.00] converted to Model "REGCA1"

 Model "REECAU1" at bus 41     [RE41_29     345.00] converted to Model "REECA1"

 Model "REPCAU1" at bus 41     [RE41_29     345.00] converted to Model "REPCA1"

 Model "REGCAU1" at bus 42     [RE42_39     345.00] converted to Model "REGCA1"

 Model "REECAU1" at bus 42     [RE42_39     345.00] converted to Model "REECA1"

 Model "REPCAU1" at bus 42     [RE42_39     345.00] converted to Model "REPCA1"

 Model "GENTPJU1" at bus 30     [GEN30       34.500] converted to Model "GENTPJ1"

 Model "GENTPJU1" at bus 31     [GEN31       34.500] converted to Model "GENTPJ1"

 Model "GENTPJU1" at bus 32     [GEN32       21.000] converted to Model "GENTPJ1"

 Model "GENTPJU1" at bus 33     [GEN33       21.000] converted to Model "GENTPJ1"

 Model "GENTPJU1" at bus 34     [GEN34       15.500] converted to Model "GENTPJ1"

 Model "GENTPJU1" at bus 35     [GEN35       15.500] converted to Model "GENTPJ1"

 Model "GENTPJU1" at bus 36     [GEN36       12.500] converted to Model "GENTPJ1"

 Model "GENTPJU1" at bus 37     [GEN37       12.500] converted to Model "GENTPJ1"

 Model "GENTPJU1" at bus 38     [GEN38       34.500] converted to Model "GENTPJ1"

 Model "GENTPJU1" at bus 39     [GEN39       345.00] converted to Model "GENTPJ1"
 Out of file data--switch to terminal input mode

 Generator models use:
  CONS         1-    160
  STATES       1-     60
  VARS         1-     10

 Stabilizer models use:
  CONS       161-    330
  STATES      61-    220
  VARS        11-     50
  ICONS        1-     60

 Excitation System models use:
  CONS       331-    490
  STATES     221-    270
  VARS        51-     60

 Turbine Governor models use:
  CONS       491-    600
  STATES     271-    320
  VARS        61-     70

 Renewable Generator models use:
  CONS       601-    642
  STATES     321-    329
  VARS        71-     82
  ICONS       61-     63

 Renewable Electrical models use:
  CONS       643-    777
  STATES     330-    347
  VARS        83-    109
  ICONS       64-     81

 Renewable Auxiliary models use:
  CONS       778-    858
  STATES     348-    368
  VARS       110-    136
  ICONS       82-    102


 SUMMARY OF MODELS READ:

 GENS:  GENTPJ1
          10

 STABS: PSS2A
          10

 EXSYS: IEEEX1
          10

 GOVS:  IEESGO
          10

 REGEN: REGCA1
           3

 REELC: REECA1
           3

 REPLN: REPCA1
           3

 NEXT AVAILABLE ADDRESSES ARE:
     CON   STATE     VAR    ICON
     859     369     137     103

 Only PSSE supplied models in case. Compilation is not required

 Out of file data--switch to terminal input mode

 Shared Load Characteristic models use:
  CONS       859-   2055
  ICONS      103-    120

 Unshared Load models use:
  STATES     369-    611
  VARS       137-   1450
  ICONS      121-    552


 SUMMARY OF MODELS READ:

 USER:  USRLOD
           9

 NEXT AVAILABLE ADDRESSES ARE:
     CON   STATE     VAR    ICON
    2056     612    1451     553

 CONEC and CONET (if present) are unchanged. Compile CONEC and CONET (if present) and
 Compile models not supplied by PSSE and create user dll

 Bus Type Load Characteristic model "CMLDBLU2" at Bus 3 with load identifier "1":
  CON(J+39) [CON(898) changed from 0.02 to 0.02 [Ra - Motor A stator resistance, pu on motor base]

 Bus Type Load Characteristic model "CMLDBLU2" at Bus 3 with load identifier "1":
  CON(J+40) [CON(899) changed from 1.8 to 1.8 [X - Motor A synchronous reactance, pu]

 Bus Type Load Characteristic model "CMLDBLU2" at Bus 3 with load identifier "1":
  CON(J+41) [CON(900) changed from 0.12 to 0.22 [X' - Motor A transient reactance, pu]

 Bus Type Load Characteristic model "CMLDBLU2" at Bus 3 with load identifier "1":
  CON(J+43) [CON(902) changed from 0.08 to 0.08 [To' - Motor A transient open circuit time constant, s]

 Bus Type Load Characteristic model "CMLDBLU2" at Bus 3 with load identifier "1":
  CON(J+45) [CON(904) changed from 0.1 to 0.1 [H - Motor A inertia constant]

 20 Output channels have been added


 Next available addresses are:
   CHANNEL    VAR    ICON
       21    1471     563

 10 Output channels have been added


 Next available addresses are:
   CHANNEL    VAR    ICON
       31    1471     563

 10 Output channels have been added


 Next available addresses are:
   CHANNEL    VAR    ICON
       41    1471     563

 CHANNEL   41 WITH IDENTIFIER "BUS3 LOAD MVA" ADDED

 CHANNEL   42 WITH IDENTIFIER "BUS3 UD" ADDED

 CHANNEL   43 WITH IDENTIFIER "BUS3 UQ" ADDED

 CHANNEL   44 WITH IDENTIFIER "BUS3 MA P" ADDED

 CHANNEL   45 WITH IDENTIFIER "BUS3 MA Q" ADDED

 CHANNEL   46 WITH IDENTIFIER "BUS3 MB P" ADDED

 CHANNEL   47 WITH IDENTIFIER "BUS3 MB Q" ADDED

 CHANNEL   48 WITH IDENTIFIER "BUS3 MA INIT LOAD TORQUE" ADDED

 CHANNEL   49 WITH IDENTIFIER "BUS3 MA ID" ADDED

 CHANNEL   50 WITH IDENTIFIER "BUS3 MA IQ" ADDED

 CHANNEL   51 WITH IDENTIFIER "BUS3 MA MVA" ADDED

 CHANNEL   52 WITH IDENTIFIER "BUS3 MB INIT LOAD TORQUE" ADDED

 CHANNEL   53 WITH IDENTIFIER "BUS3 MB ID" ADDED

 CHANNEL   54 WITH IDENTIFIER "BUS3 MB IQ" ADDED

 CHANNEL   55 WITH IDENTIFIER "BUS3 MB MVA" ADDED

 CHANNEL   56 WITH IDENTIFIER "BUS3 MA EQ1" ADDED

 CHANNEL   57 WITH IDENTIFIER "BUS3 MA ED1" ADDED

 CHANNEL   58 WITH IDENTIFIER "BUS3 MA SPEED DEVIATION" ADDED

 CHANNEL   59 WITH IDENTIFIER "BUS3 MB EQ1" ADDED

 CHANNEL   60 WITH IDENTIFIER "BUS3 MB ED1" ADDED

 CHANNEL   61 WITH IDENTIFIER "BUS3 MB SPEED DEVIATION" ADDED

 CHANNEL   62 WITH IDENTIFIER "BUS4 LOAD MVA" ADDED

 CHANNEL   63 WITH IDENTIFIER "BUS4 UD" ADDED

 CHANNEL   64 WITH IDENTIFIER "BUS4 UQ" ADDED

 CHANNEL   65 WITH IDENTIFIER "BUS4 MA P" ADDED

 CHANNEL   66 WITH IDENTIFIER "BUS4 MA Q" ADDED

 CHANNEL   67 WITH IDENTIFIER "BUS4 MB P" ADDED

 CHANNEL   68 WITH IDENTIFIER "BUS4 MB Q" ADDED

 CHANNEL   69 WITH IDENTIFIER "BUS4 MA INIT LOAD TORQUE" ADDED

 CHANNEL   70 WITH IDENTIFIER "BUS4 MA ID" ADDED

 CHANNEL   71 WITH IDENTIFIER "BUS4 MA IQ" ADDED

 CHANNEL   72 WITH IDENTIFIER "BUS4 MA MVA" ADDED

 CHANNEL   73 WITH IDENTIFIER "BUS4 MB INIT LOAD TORQUE" ADDED

 CHANNEL   74 WITH IDENTIFIER "BUS4 MB ID" ADDED

 CHANNEL   75 WITH IDENTIFIER "BUS4 MB IQ" ADDED

 CHANNEL   76 WITH IDENTIFIER "BUS4 MB MVA" ADDED

 CHANNEL   77 WITH IDENTIFIER "BUS4 MA EQ1" ADDED

 CHANNEL   78 WITH IDENTIFIER "BUS4 MA ED1" ADDED

 CHANNEL   79 WITH IDENTIFIER "BUS4 MA SPEED DEVIATION" ADDED

 CHANNEL   80 WITH IDENTIFIER "BUS4 MB EQ1" ADDED

 CHANNEL   81 WITH IDENTIFIER "BUS4 MB ED1" ADDED

 CHANNEL   82 WITH IDENTIFIER "BUS4 MB SPEED DEVIATION" ADDED

 CHANNEL   83 WITH IDENTIFIER "BUS15 LOAD MVA" ADDED

 CHANNEL   84 WITH IDENTIFIER "BUS15 UD" ADDED

 CHANNEL   85 WITH IDENTIFIER "BUS15 UQ" ADDED

 CHANNEL   86 WITH IDENTIFIER "BUS15 MA P" ADDED

 CHANNEL   87 WITH IDENTIFIER "BUS15 MA Q" ADDED

 CHANNEL   88 WITH IDENTIFIER "BUS15 MB P" ADDED

 CHANNEL   89 WITH IDENTIFIER "BUS15 MB Q" ADDED

 CHANNEL   90 WITH IDENTIFIER "BUS15 MA INIT LOAD TORQUE" ADDED

 CHANNEL   91 WITH IDENTIFIER "BUS15 MA ID" ADDED

 CHANNEL   92 WITH IDENTIFIER "BUS15 MA IQ" ADDED

 CHANNEL   93 WITH IDENTIFIER "BUS15 MA MVA" ADDED

 CHANNEL   94 WITH IDENTIFIER "BUS15 MB INIT LOAD TORQUE" ADDED

 CHANNEL   95 WITH IDENTIFIER "BUS15 MB ID" ADDED

 CHANNEL   96 WITH IDENTIFIER "BUS15 MB IQ" ADDED

 CHANNEL   97 WITH IDENTIFIER "BUS15 MB MVA" ADDED

 CHANNEL   98 WITH IDENTIFIER "BUS15 MA EQ1" ADDED

 CHANNEL   99 WITH IDENTIFIER "BUS15 MA ED1" ADDED

 CHANNEL  100 WITH IDENTIFIER "BUS15 MA SPEED DEVIATION" ADDED

 CHANNEL  101 WITH IDENTIFIER "BUS15 MB EQ1" ADDED

 CHANNEL  102 WITH IDENTIFIER "BUS15 MB ED1" ADDED

 CHANNEL  103 WITH IDENTIFIER "BUS15 MB SPEED DEVIATION" ADDED

 CHANNEL  104 WITH IDENTIFIER "BUS20 LOAD MVA" ADDED

 CHANNEL  105 WITH IDENTIFIER "BUS20 UD" ADDED

 CHANNEL  106 WITH IDENTIFIER "BUS20 UQ" ADDED

 CHANNEL  107 WITH IDENTIFIER "BUS20 MA P" ADDED

 CHANNEL  108 WITH IDENTIFIER "BUS20 MA Q" ADDED

 CHANNEL  109 WITH IDENTIFIER "BUS20 MB P" ADDED

 CHANNEL  110 WITH IDENTIFIER "BUS20 MB Q" ADDED

 CHANNEL  111 WITH IDENTIFIER "BUS20 MA INIT LOAD TORQUE" ADDED

 CHANNEL  112 WITH IDENTIFIER "BUS20 MA ID" ADDED

 CHANNEL  113 WITH IDENTIFIER "BUS20 MA IQ" ADDED

 CHANNEL  114 WITH IDENTIFIER "BUS20 MA MVA" ADDED

 CHANNEL  115 WITH IDENTIFIER "BUS20 MB INIT LOAD TORQUE" ADDED

 CHANNEL  116 WITH IDENTIFIER "BUS20 MB ID" ADDED

 CHANNEL  117 WITH IDENTIFIER "BUS20 MB IQ" ADDED

 CHANNEL  118 WITH IDENTIFIER "BUS20 MB MVA" ADDED

 CHANNEL  119 WITH IDENTIFIER "BUS20 MA EQ1" ADDED

 CHANNEL  120 WITH IDENTIFIER "BUS20 MA ED1" ADDED

 CHANNEL  121 WITH IDENTIFIER "BUS20 MA SPEED DEVIATION" ADDED

 CHANNEL  122 WITH IDENTIFIER "BUS20 MB EQ1" ADDED

 CHANNEL  123 WITH IDENTIFIER "BUS20 MB ED1" ADDED

 CHANNEL  124 WITH IDENTIFIER "BUS20 MB SPEED DEVIATION" ADDED

 CHANNEL  125 WITH IDENTIFIER "BUS21 LOAD MVA" ADDED

 CHANNEL  126 WITH IDENTIFIER "BUS21 UD" ADDED

 CHANNEL  127 WITH IDENTIFIER "BUS21 UQ" ADDED

 CHANNEL  128 WITH IDENTIFIER "BUS21 MA P" ADDED

 CHANNEL  129 WITH IDENTIFIER "BUS21 MA Q" ADDED

 CHANNEL  130 WITH IDENTIFIER "BUS21 MB P" ADDED

 CHANNEL  131 WITH IDENTIFIER "BUS21 MB Q" ADDED

 CHANNEL  132 WITH IDENTIFIER "BUS21 MA INIT LOAD TORQUE" ADDED

 CHANNEL  133 WITH IDENTIFIER "BUS21 MA ID" ADDED

 CHANNEL  134 WITH IDENTIFIER "BUS21 MA IQ" ADDED

 CHANNEL  135 WITH IDENTIFIER "BUS21 MA MVA" ADDED

 CHANNEL  136 WITH IDENTIFIER "BUS21 MB INIT LOAD TORQUE" ADDED

 CHANNEL  137 WITH IDENTIFIER "BUS21 MB ID" ADDED

 CHANNEL  138 WITH IDENTIFIER "BUS21 MB IQ" ADDED

 CHANNEL  139 WITH IDENTIFIER "BUS21 MB MVA" ADDED

 CHANNEL  140 WITH IDENTIFIER "BUS21 MA EQ1" ADDED

 CHANNEL  141 WITH IDENTIFIER "BUS21 MA ED1" ADDED

 CHANNEL  142 WITH IDENTIFIER "BUS21 MA SPEED DEVIATION" ADDED

 CHANNEL  143 WITH IDENTIFIER "BUS21 MB EQ1" ADDED

 CHANNEL  144 WITH IDENTIFIER "BUS21 MB ED1" ADDED

 CHANNEL  145 WITH IDENTIFIER "BUS21 MB SPEED DEVIATION" ADDED

 CHANNEL  146 WITH IDENTIFIER "BUS24 LOAD MVA" ADDED

 CHANNEL  147 WITH IDENTIFIER "BUS24 UD" ADDED

 CHANNEL  148 WITH IDENTIFIER "BUS24 UQ" ADDED

 CHANNEL  149 WITH IDENTIFIER "BUS24 MA P" ADDED

 CHANNEL  150 WITH IDENTIFIER "BUS24 MA Q" ADDED

 CHANNEL  151 WITH IDENTIFIER "BUS24 MB P" ADDED

 CHANNEL  152 WITH IDENTIFIER "BUS24 MB Q" ADDED

 CHANNEL  153 WITH IDENTIFIER "BUS24 MA INIT LOAD TORQUE" ADDED

 CHANNEL  154 WITH IDENTIFIER "BUS24 MA ID" ADDED

 CHANNEL  155 WITH IDENTIFIER "BUS24 MA IQ" ADDED

 CHANNEL  156 WITH IDENTIFIER "BUS24 MA MVA" ADDED

 CHANNEL  157 WITH IDENTIFIER "BUS24 MB INIT LOAD TORQUE" ADDED

 CHANNEL  158 WITH IDENTIFIER "BUS24 MB ID" ADDED

 CHANNEL  159 WITH IDENTIFIER "BUS24 MB IQ" ADDED

 CHANNEL  160 WITH IDENTIFIER "BUS24 MB MVA" ADDED

 CHANNEL  161 WITH IDENTIFIER "BUS24 MA EQ1" ADDED

 CHANNEL  162 WITH IDENTIFIER "BUS24 MA ED1" ADDED

 CHANNEL  163 WITH IDENTIFIER "BUS24 MA SPEED DEVIATION" ADDED

 CHANNEL  164 WITH IDENTIFIER "BUS24 MB EQ1" ADDED

 CHANNEL  165 WITH IDENTIFIER "BUS24 MB ED1" ADDED

 CHANNEL  166 WITH IDENTIFIER "BUS24 MB SPEED DEVIATION" ADDED

 CHANNEL  167 WITH IDENTIFIER "BUS25 LOAD MVA" ADDED

 CHANNEL  168 WITH IDENTIFIER "BUS25 UD" ADDED

 CHANNEL  169 WITH IDENTIFIER "BUS25 UQ" ADDED

 CHANNEL  170 WITH IDENTIFIER "BUS25 MA P" ADDED

 CHANNEL  171 WITH IDENTIFIER "BUS25 MA Q" ADDED

 CHANNEL  172 WITH IDENTIFIER "BUS25 MB P" ADDED

 CHANNEL  173 WITH IDENTIFIER "BUS25 MB Q" ADDED

 CHANNEL  174 WITH IDENTIFIER "BUS25 MA INIT LOAD TORQUE" ADDED

 CHANNEL  175 WITH IDENTIFIER "BUS25 MA ID" ADDED

 CHANNEL  176 WITH IDENTIFIER "BUS25 MA IQ" ADDED

 CHANNEL  177 WITH IDENTIFIER "BUS25 MA MVA" ADDED

 CHANNEL  178 WITH IDENTIFIER "BUS25 MB INIT LOAD TORQUE" ADDED

 CHANNEL  179 WITH IDENTIFIER "BUS25 MB ID" ADDED

 CHANNEL  180 WITH IDENTIFIER "BUS25 MB IQ" ADDED

 CHANNEL  181 WITH IDENTIFIER "BUS25 MB MVA" ADDED

 CHANNEL  182 WITH IDENTIFIER "BUS25 MA EQ1" ADDED

 CHANNEL  183 WITH IDENTIFIER "BUS25 MA ED1" ADDED

 CHANNEL  184 WITH IDENTIFIER "BUS25 MA SPEED DEVIATION" ADDED

 CHANNEL  185 WITH IDENTIFIER "BUS25 MB EQ1" ADDED

 CHANNEL  186 WITH IDENTIFIER "BUS25 MB ED1" ADDED

 CHANNEL  187 WITH IDENTIFIER "BUS25 MB SPEED DEVIATION" ADDED

 CHANNEL  188 WITH IDENTIFIER "BUS27 LOAD MVA" ADDED

 CHANNEL  189 WITH IDENTIFIER "BUS27 UD" ADDED

 CHANNEL  190 WITH IDENTIFIER "BUS27 UQ" ADDED

 CHANNEL  191 WITH IDENTIFIER "BUS27 MA P" ADDED

 CHANNEL  192 WITH IDENTIFIER "BUS27 MA Q" ADDED

 CHANNEL  193 WITH IDENTIFIER "BUS27 MB P" ADDED

 CHANNEL  194 WITH IDENTIFIER "BUS27 MB Q" ADDED

 CHANNEL  195 WITH IDENTIFIER "BUS27 MA INIT LOAD TORQUE" ADDED

 CHANNEL  196 WITH IDENTIFIER "BUS27 MA ID" ADDED

 CHANNEL  197 WITH IDENTIFIER "BUS27 MA IQ" ADDED

 CHANNEL  198 WITH IDENTIFIER "BUS27 MA MVA" ADDED

 CHANNEL  199 WITH IDENTIFIER "BUS27 MB INIT LOAD TORQUE" ADDED

 CHANNEL  200 WITH IDENTIFIER "BUS27 MB ID" ADDED

 CHANNEL  201 WITH IDENTIFIER "BUS27 MB IQ" ADDED

 CHANNEL  202 WITH IDENTIFIER "BUS27 MB MVA" ADDED

 CHANNEL  203 WITH IDENTIFIER "BUS27 MA EQ1" ADDED

 CHANNEL  204 WITH IDENTIFIER "BUS27 MA ED1" ADDED

 CHANNEL  205 WITH IDENTIFIER "BUS27 MA SPEED DEVIATION" ADDED

 CHANNEL  206 WITH IDENTIFIER "BUS27 MB EQ1" ADDED

 CHANNEL  207 WITH IDENTIFIER "BUS27 MB ED1" ADDED

 CHANNEL  208 WITH IDENTIFIER "BUS27 MB SPEED DEVIATION" ADDED

 CHANNEL  209 WITH IDENTIFIER "BUS28 LOAD MVA" ADDED

 CHANNEL  210 WITH IDENTIFIER "BUS28 UD" ADDED

 CHANNEL  211 WITH IDENTIFIER "BUS28 UQ" ADDED

 CHANNEL  212 WITH IDENTIFIER "BUS28 MA P" ADDED

 CHANNEL  213 WITH IDENTIFIER "BUS28 MA Q" ADDED

 CHANNEL  214 WITH IDENTIFIER "BUS28 MB P" ADDED

 CHANNEL  215 WITH IDENTIFIER "BUS28 MB Q" ADDED

 CHANNEL  216 WITH IDENTIFIER "BUS28 MA INIT LOAD TORQUE" ADDED

 CHANNEL  217 WITH IDENTIFIER "BUS28 MA ID" ADDED

 CHANNEL  218 WITH IDENTIFIER "BUS28 MA IQ" ADDED

 CHANNEL  219 WITH IDENTIFIER "BUS28 MA MVA" ADDED

 CHANNEL  220 WITH IDENTIFIER "BUS28 MB INIT LOAD TORQUE" ADDED

 CHANNEL  221 WITH IDENTIFIER "BUS28 MB ID" ADDED

 CHANNEL  222 WITH IDENTIFIER "BUS28 MB IQ" ADDED

 CHANNEL  223 WITH IDENTIFIER "BUS28 MB MVA" ADDED

 CHANNEL  224 WITH IDENTIFIER "BUS28 MA EQ1" ADDED

 CHANNEL  225 WITH IDENTIFIER "BUS28 MA ED1" ADDED

 CHANNEL  226 WITH IDENTIFIER "BUS28 MA SPEED DEVIATION" ADDED

 CHANNEL  227 WITH IDENTIFIER "BUS28 MB EQ1" ADDED

 CHANNEL  228 WITH IDENTIFIER "BUS28 MB ED1" ADDED

 CHANNEL  229 WITH IDENTIFIER "BUS28 MB SPEED DEVIATION" ADDED

 42 diagonal and 70 off-diagonal elements

 Models have removed constant admittance load and/or machines--REFACTORIZING

 42 diagonal and 70 off-diagonal elements

 Model REPCA1 Bus 40 [RE40_2      345.00] Machine "1 " :
 Branch not defined in ICONs M+1 through M+3: Model will use machine power instead

 Model REPCA1 Bus 41 [RE41_29     345.00] Machine "1 " :
 Branch not defined in ICONs M+1 through M+3: Model will use machine power instead

 Model REPCA1 Bus 42 [RE42_39     345.00] Machine "1 " :
 Branch not defined in ICONs M+1 through M+3: Model will use machine power instead

     PTI INTERACTIVE POWER SYSTEM SIMULATOR--PSS(R)E     THU, APR 09 2026  15:10
 NEW ENGLAND TEST SYSTEM, 39 BUSES, 9 GENERATORS, 2 AREAS, 4
 UPDATED BY JOSE CONTO

 INITIAL CONDITION LOAD FLOW USED 1 ITERATIONS

 ----------------------------- MACHINE INITIAL CONDITIONS -----------------------------
   BUS#-SCT X-- NAME --X BASKV ID  ETERM   EFD    POWER    VARS   P.F.  ANGLE   ID     IQ
     30     GEN30       34.500 1  1.0268 2.7988  250.00  153.18 0.8527  20.74 0.9477 0.4243
     31     GEN31       34.500 1  1.0015 2.6667  572.93  429.80 0.7999  12.21 0.7725 0.3675
     32     GEN32       21.000 1  0.9831 1.7067  450.00  121.03 0.9657  19.16 0.4270 0.3651
     33     GEN33       21.000 1  0.9972 1.7346  632.00  176.55 0.9631  21.62 0.4236 0.3665
     34     GEN34       15.500 1  1.0123 1.7352  508.00  198.31 0.9315  14.96 0.3802 0.3227
     35     GEN35       15.500 1  1.0493 1.9708  450.00  260.05 0.8658   7.49 0.3538 0.2880
     36     GEN36       12.500 1  1.0635 1.8249  560.00  137.20 0.9713  21.31 0.3661 0.3816
     37     GEN37       12.500 1  1.0278 1.7353  540.00   96.30 0.9845  25.24 0.3818 0.3960
     38     GEN38       34.500 1  1.0265 1.5151  629.99  145.13 0.9745  18.75 0.2311 0.2940
     39     GEN39       345.00 1  1.0300 1.7565  708.52  115.91 0.9869  24.50 0.4092 0.4129
     40     RE40_2      345.00 1  1.0200 0.0000  200.00   -2.28 0.9999 -10.68-0.0112 0.9804
     41     RE41_29     345.00 1  1.0150 0.0000  200.00  -19.03 0.9955  -6.36-0.0937 0.9852
     42     RE42_39     345.00 1  1.0250 0.0000  200.00   -0.76 1.0000  -5.52-0.0037 0.9756

 INITIAL CONDITIONS CHECK O.K.

 Channel output file is "./Cases/IEEE39_RE.out"

 No power flow data changed for load "1" at bus 12 [LOAD12      138.00]

 No power flow data changed for load "1" at bus 7 [LOAD7       345.00]

 No power flow data changed for load "1" at bus 8 [LOAD8       345.00]

 No power flow data changed for load "1" at bus 23 [LOAD23      345.00]

 No power flow data changed for load "1" at bus 16 [LOAD16      345.00]

 No power flow data changed for load "1" at bus 18 [LOAD18      345.00]

 No power flow data changed for load "1" at bus 26 [LOAD26      345.00]

 Power flow data changed for load "1" at bus 29 [LOAD29      345.00]:
 X--ORIGINAL--X  X-NEW VALUE--X  DATA ITEM
    0.00000       -0.430150E-03  PL

 Channel output file is "./Cases/IEEE39_RE.out"

 42 diagonal and 70 off-diagonal elements

 No power flow data changed for load "1" at bus 12 [LOAD12      138.00]

 No power flow data changed for load "1" at bus 7 [LOAD7       345.00]

 No power flow data changed for load "1" at bus 8 [LOAD8       345.00]

 No power flow data changed for load "1" at bus 23 [LOAD23      345.00]

 No power flow data changed for load "1" at bus 16 [LOAD16      345.00]

 No power flow data changed for load "1" at bus 18 [LOAD18      345.00]

 No power flow data changed for load "1" at bus 26 [LOAD26      345.00]

 Power flow data changed for load "1" at bus 29 [LOAD29      345.00]:
 X--ORIGINAL--X  X-NEW VALUE--X  DATA ITEM
  -0.430150E-03     7.89562      PL

 Channel output file is "./Cases/IEEE39_RE.out"

 42 diagonal and 70 off-diagonal elements

 No power flow data changed for load "1" at bus 12 [LOAD12      138.00]

 No power flow data changed for load "1" at bus 7 [LOAD7       345.00]

 No power flow data changed for load "1" at bus 8 [LOAD8       345.00]

 No power flow data changed for load "1" at bus 23 [LOAD23      345.00]

 No power flow data changed for load "1" at bus 16 [LOAD16      345.00]

 No power flow data changed for load "1" at bus 18 [LOAD18      345.00]

 No power flow data changed for load "1" at bus 26 [LOAD26      345.00]

 Power flow data changed for load "1" at bus 29 [LOAD29      345.00]:
 X--ORIGINAL--X  X-NEW VALUE--X  DATA ITEM
    7.89562         19.6851      PL

 Channel output file is "./Cases/IEEE39_RE.out"

 42 diagonal and 70 off-diagonal elements

 No power flow data changed for load "1" at bus 12 [LOAD12      138.00]

 No power flow data changed for load "1" at bus 7 [LOAD7       345.00]

 No power flow data changed for load "1" at bus 8 [LOAD8       345.00]

 No power flow data changed for load "1" at bus 23 [LOAD23      345.00]

 No power flow data changed for load "1" at bus 16 [LOAD16      345.00]

 No power flow data changed for load "1" at bus 18 [LOAD18      345.00]

 No power flow data changed for load "1" at bus 26 [LOAD26      345.00]

 Power flow data changed for load "1" at bus 29 [LOAD29      345.00]:
 X--ORIGINAL--X  X-NEW VALUE--X  DATA ITEM
    19.6851         35.8063      PL

 Channel output file is "./Cases/IEEE39_RE.out"

 42 diagonal and 70 off-diagonal elements

 No power flow data changed for load "1" at bus 12 [LOAD12      138.00]

 No power flow data changed for load "1" at bus 7 [LOAD7       345.00]

 No power flow data changed for load "1" at bus 8 [LOAD8       345.00]

 No power flow data changed for load "1" at bus 23 [LOAD23      345.00]

 No power flow data changed for load "1" at bus 16 [LOAD16      345.00]

 No power flow data changed for load "1" at bus 18 [LOAD18      345.00]

 No power flow data changed for load "1" at bus 26 [LOAD26      345.00]

 Power flow data changed for load "1" at bus 29 [LOAD29      345.00]:
 X--ORIGINAL--X  X-NEW VALUE--X  DATA ITEM
    35.8063         56.4758      PL

 Channel output file is "./Cases/IEEE39_RE.out"

 42 diagonal and 70 off-diagonal elements

 No power flow data changed for load "1" at bus 12 [LOAD12      138.00]

 No power flow data changed for load "1" at bus 7 [LOAD7       345.00]

 No power flow data changed for load "1" at bus 8 [LOAD8       345.00]

 No power flow data changed for load "1" at bus 23 [LOAD23      345.00]

 No power flow data changed for load "1" at bus 16 [LOAD16      345.00]

 No power flow data changed for load "1" at bus 18 [LOAD18      345.00]

 No power flow data changed for load "1" at bus 26 [LOAD26      345.00]

 Power flow data changed for load "1" at bus 29 [LOAD29      345.00]:
 X--ORIGINAL--X  X-NEW VALUE--X  DATA ITEM
    56.4758         81.4844      PL

 Channel output file is "./Cases/IEEE39_RE.out"

 42 diagonal and 70 off-diagonal elements

 No power flow data changed for load "1" at bus 12 [LOAD12      138.00]

 No power flow data changed for load "1" at bus 7 [LOAD7       345.00]

 No power flow data changed for load "1" at bus 8 [LOAD8       345.00]

 No power flow data changed for load "1" at bus 23 [LOAD23      345.00]

 No power flow data changed for load "1" at bus 16 [LOAD16      345.00]

 No power flow data changed for load "1" at bus 18 [LOAD18      345.00]

 No power flow data changed for load "1" at bus 26 [LOAD26      345.00]

 Power flow data changed for load "1" at bus 29 [LOAD29      345.00]:
 X--ORIGINAL--X  X-NEW VALUE--X  DATA ITEM
    81.4844         109.979      PL

 Channel output file is "./Cases/IEEE39_RE.out"

 42 diagonal and 70 off-diagonal elements

 No power flow data changed for load "1" at bus 12 [LOAD12      138.00]

 No power flow data changed for load "1" at bus 7 [LOAD7       345.00]

 No power flow data changed for load "1" at bus 8 [LOAD8       345.00]

 No power flow data changed for load "1" at bus 23 [LOAD23      345.00]

 No power flow data changed for load "1" at bus 16 [LOAD16      345.00]

 No power flow data changed for load "1" at bus 18 [LOAD18      345.00]

 No power flow data changed for load "1" at bus 26 [LOAD26      345.00]

 Power flow data changed for load "1" at bus 29 [LOAD29      345.00]:
 X--ORIGINAL--X  X-NEW VALUE--X  DATA ITEM
    109.979         140.276      PL

 Channel output file is "./Cases/IEEE39_RE.out"

 42 diagonal and 70 off-diagonal elements

 No power flow data changed for load "1" at bus 12 [LOAD12      138.00]

 No power flow data changed for load "1" at bus 7 [LOAD7       345.00]

 No power flow data changed for load "1" at bus 8 [LOAD8       345.00]

 No power flow data changed for load "1" at bus 23 [LOAD23      345.00]

 No power flow data changed for load "1" at bus 16 [LOAD16      345.00]

 No power flow data changed for load "1" at bus 18 [LOAD18      345.00]

 No power flow data changed for load "1" at bus 26 [LOAD26      345.00]

 Power flow data changed for load "1" at bus 29 [LOAD29      345.00]:
 X--ORIGINAL--X  X-NEW VALUE--X  DATA ITEM
    140.276         169.863      PL

 Channel output file is "./Cases/IEEE39_RE.out"

 42 diagonal and 70 off-diagonal elements

 No power flow data changed for load "1" at bus 12 [LOAD12      138.00]

 No power flow data changed for load "1" at bus 7 [LOAD7       345.00]

 No power flow data changed for load "1" at bus 8 [LOAD8       345.00]

 No power flow data changed for load "1" at bus 23 [LOAD23      345.00]

 No power flow data changed for load "1" at bus 16 [LOAD16      345.00]

 No power flow data changed for load "1" at bus 18 [LOAD18      345.00]

 No power flow data changed for load "1" at bus 26 [LOAD26      345.00]

 Power flow data changed for load "1" at bus 29 [LOAD29      345.00]:
 X--ORIGINAL--X  X-NEW VALUE--X  DATA ITEM
    169.863         195.725      PL

 Channel output file is "./Cases/IEEE39_RE.out"

 42 diagonal and 70 off-diagonal elements

 No power flow data changed for load "1" at bus 12 [LOAD12      138.00]

 No power flow data changed for load "1" at bus 7 [LOAD7       345.00]

 No power flow data changed for load "1" at bus 8 [LOAD8       345.00]

 No power flow data changed for load "1" at bus 23 [LOAD23      345.00]

 No power flow data changed for load "1" at bus 16 [LOAD16      345.00]

 No power flow data changed for load "1" at bus 18 [LOAD18      345.00]

 No power flow data changed for load "1" at bus 26 [LOAD26      345.00]

 Power flow data changed for load "1" at bus 29 [LOAD29      345.00]:
 X--ORIGINAL--X  X-NEW VALUE--X  DATA ITEM
    195.725         214.929      PL

 Channel output file is "./Cases/IEEE39_RE.out"

 42 diagonal and 70 off-diagonal elements

 No power flow data changed for load "1" at bus 12 [LOAD12      138.00]

 No power flow data changed for load "1" at bus 7 [LOAD7       345.00]

 No power flow data changed for load "1" at bus 8 [LOAD8       345.00]

 No power flow data changed for load "1" at bus 23 [LOAD23      345.00]

 No power flow data changed for load "1" at bus 16 [LOAD16      345.00]

 No power flow data changed for load "1" at bus 18 [LOAD18      345.00]

 No power flow data changed for load "1" at bus 26 [LOAD26      345.00]

 Power flow data changed for load "1" at bus 29 [LOAD29      345.00]:
 X--ORIGINAL--X  X-NEW VALUE--X  DATA ITEM
    214.929         225.203      PL

 Channel output file is "./Cases/IEEE39_RE.out"

 42 diagonal and 70 off-diagonal elements

 No power flow data changed for load "1" at bus 12 [LOAD12      138.00]

 No power flow data changed for load "1" at bus 7 [LOAD7       345.00]

 No power flow data changed for load "1" at bus 8 [LOAD8       345.00]

 No power flow data changed for load "1" at bus 23 [LOAD23      345.00]

 No power flow data changed for load "1" at bus 16 [LOAD16      345.00]

 No power flow data changed for load "1" at bus 18 [LOAD18      345.00]

 No power flow data changed for load "1" at bus 26 [LOAD26      345.00]

 Power flow data changed for load "1" at bus 29 [LOAD29      345.00]:
 X--ORIGINAL--X  X-NEW VALUE--X  DATA ITEM
    225.203         225.280      PL

 Channel output file is "./Cases/IEEE39_RE.out"

 42 diagonal and 70 off-diagonal elements
 LTC DELAY TIMER STARTED AT                28 LOAD28       345.00 1  V= 1.0000 AT TIME=   1.270
 LTC DELAY TIMER STARTED AT                25 LOAD25       345.00 1  V= 1.0000 AT TIME=   1.276

 No power flow data changed for load "1" at bus 12 [LOAD12      138.00]

 No power flow data changed for load "1" at bus 7 [LOAD7       345.00]

 No power flow data changed for load "1" at bus 8 [LOAD8       345.00]

 No power flow data changed for load "1" at bus 23 [LOAD23      345.00]

 No power flow data changed for load "1" at bus 16 [LOAD16      345.00]

 No power flow data changed for load "1" at bus 18 [LOAD18      345.00]

 No power flow data changed for load "1" at bus 26 [LOAD26      345.00]

 Power flow data changed for load "1" at bus 29 [LOAD29      345.00]:
 X--ORIGINAL--X  X-NEW VALUE--X  DATA ITEM
    225.280         214.896      PL

 Channel output file is "./Cases/IEEE39_RE.out"

 42 diagonal and 70 off-diagonal elements
 LTC DELAY TIMER STARTED AT                20 LOAD20       138.00 1  V= 1.0000 AT TIME=   1.336
 LTC DELAY TIMER STARTED AT                27 LOAD27       345.00 1  V= 1.0000 AT TIME=   1.400

 No power flow data changed for load "1" at bus 12 [LOAD12      138.00]

 No power flow data changed for load "1" at bus 7 [LOAD7       345.00]

 No power flow data changed for load "1" at bus 8 [LOAD8       345.00]

 No power flow data changed for load "1" at bus 23 [LOAD23      345.00]

 No power flow data changed for load "1" at bus 16 [LOAD16      345.00]

 No power flow data changed for load "1" at bus 18 [LOAD18      345.00]

 No power flow data changed for load "1" at bus 26 [LOAD26      345.00]

 Power flow data changed for load "1" at bus 29 [LOAD29      345.00]:
 X--ORIGINAL--X  X-NEW VALUE--X  DATA ITEM
    214.896         194.556      PL

 Channel output file is "./Cases/IEEE39_RE.out"

 42 diagonal and 70 off-diagonal elements
     LTC DELAY TIMER RESET
 LTC DELAY TIMER STARTED AT                27 LOAD27       345.00 1  V= 1.0000 AT TIME=   1.402

 No power flow data changed for load "1" at bus 12 [LOAD12      138.00]

 No power flow data changed for load "1" at bus 7 [LOAD7       345.00]

 No power flow data changed for load "1" at bus 8 [LOAD8       345.00]

 No power flow data changed for load "1" at bus 23 [LOAD23      345.00]

 No power flow data changed for load "1" at bus 16 [LOAD16      345.00]

 No power flow data changed for load "1" at bus 18 [LOAD18      345.00]

 No power flow data changed for load "1" at bus 26 [LOAD26      345.00]

 Power flow data changed for load "1" at bus 29 [LOAD29      345.00]:
 X--ORIGINAL--X  X-NEW VALUE--X  DATA ITEM
    194.556         165.314      PL

 Channel output file is "./Cases/IEEE39_RE.out"

 42 diagonal and 70 off-diagonal elements

 No power flow data changed for load "1" at bus 12 [LOAD12      138.00]

 No power flow data changed for load "1" at bus 7 [LOAD7       345.00]

 No power flow data changed for load "1" at bus 8 [LOAD8       345.00]

 No power flow data changed for load "1" at bus 23 [LOAD23      345.00]

 No power flow data changed for load "1" at bus 16 [LOAD16      345.00]

 No power flow data changed for load "1" at bus 18 [LOAD18      345.00]

 No power flow data changed for load "1" at bus 26 [LOAD26      345.00]

 Power flow data changed for load "1" at bus 29 [LOAD29      345.00]:
 X--ORIGINAL--X  X-NEW VALUE--X  DATA ITEM
    165.314         128.706      PL

 Channel output file is "./Cases/IEEE39_RE.out"

 42 diagonal and 70 off-diagonal elements

 No power flow data changed for load "1" at bus 12 [LOAD12      138.00]

 No power flow data changed for load "1" at bus 7 [LOAD7       345.00]

 No power flow data changed for load "1" at bus 8 [LOAD8       345.00]

 No power flow data changed for load "1" at bus 23 [LOAD23      345.00]

 No power flow data changed for load "1" at bus 16 [LOAD16      345.00]

 No power flow data changed for load "1" at bus 18 [LOAD18      345.00]

 No power flow data changed for load "1" at bus 26 [LOAD26      345.00]

 Power flow data changed for load "1" at bus 29 [LOAD29      345.00]:
 X--ORIGINAL--X  X-NEW VALUE--X  DATA ITEM
    128.706         86.7752      PL

 Channel output file is "./Cases/IEEE39_RE.out"

 42 diagonal and 70 off-diagonal elements

 No power flow data changed for load "1" at bus 12 [LOAD12      138.00]

 No power flow data changed for load "1" at bus 7 [LOAD7       345.00]

 No power flow data changed for load "1" at bus 8 [LOAD8       345.00]

 No power flow data changed for load "1" at bus 23 [LOAD23      345.00]

 No power flow data changed for load "1" at bus 16 [LOAD16      345.00]

 No power flow data changed for load "1" at bus 18 [LOAD18      345.00]

 No power flow data changed for load "1" at bus 26 [LOAD26      345.00]

 Power flow data changed for load "1" at bus 29 [LOAD29      345.00]:
 X--ORIGINAL--X  X-NEW VALUE--X  DATA ITEM
    86.7752         41.9549      PL

 Channel output file is "./Cases/IEEE39_RE.out"

 42 diagonal and 70 off-diagonal elements

 No power flow data changed for load "1" at bus 12 [LOAD12      138.00]

 No power flow data changed for load "1" at bus 7 [LOAD7       345.00]

 No power flow data changed for load "1" at bus 8 [LOAD8       345.00]

 No power flow data changed for load "1" at bus 23 [LOAD23      345.00]

 No power flow data changed for load "1" at bus 16 [LOAD16      345.00]

 No power flow data changed for load "1" at bus 18 [LOAD18      345.00]

 No power flow data changed for load "1" at bus 26 [LOAD26      345.00]

 Power flow data changed for load "1" at bus 29 [LOAD29      345.00]:
 X--ORIGINAL--X  X-NEW VALUE--X  DATA ITEM
    41.9549        -3.23080      PL

 Channel output file is "./Cases/IEEE39_RE.out"

 42 diagonal and 70 off-diagonal elements

 No power flow data changed for load "1" at bus 12 [LOAD12      138.00]

 No power flow data changed for load "1" at bus 7 [LOAD7       345.00]

 No power flow data changed for load "1" at bus 8 [LOAD8       345.00]

 No power flow data changed for load "1" at bus 23 [LOAD23      345.00]

 No power flow data changed for load "1" at bus 16 [LOAD16      345.00]

 No power flow data changed for load "1" at bus 18 [LOAD18      345.00]

 No power flow data changed for load "1" at bus 26 [LOAD26      345.00]

 Power flow data changed for load "1" at bus 29 [LOAD29      345.00]:
 X--ORIGINAL--X  X-NEW VALUE--X  DATA ITEM
   -3.23080        -46.5515      PL

 Channel output file is "./Cases/IEEE39_RE.out"

 42 diagonal and 70 off-diagonal elements

 No power flow data changed for load "1" at bus 12 [LOAD12      138.00]

 No power flow data changed for load "1" at bus 7 [LOAD7       345.00]

 No power flow data changed for load "1" at bus 8 [LOAD8       345.00]

 No power flow data changed for load "1" at bus 23 [LOAD23      345.00]

 No power flow data changed for load "1" at bus 16 [LOAD16      345.00]

 No power flow data changed for load "1" at bus 18 [LOAD18      345.00]

 No power flow data changed for load "1" at bus 26 [LOAD26      345.00]

 Power flow data changed for load "1" at bus 29 [LOAD29      345.00]:
 X--ORIGINAL--X  X-NEW VALUE--X  DATA ITEM
   -46.5515        -86.3522      PL

 Channel output file is "./Cases/IEEE39_RE.out"

 42 diagonal and 70 off-diagonal elements

 No power flow data changed for load "1" at bus 12 [LOAD12      138.00]

 No power flow data changed for load "1" at bus 7 [LOAD7       345.00]

 No power flow data changed for load "1" at bus 8 [LOAD8       345.00]

 No power flow data changed for load "1" at bus 23 [LOAD23      345.00]

 No power flow data changed for load "1" at bus 16 [LOAD16      345.00]

 No power flow data changed for load "1" at bus 18 [LOAD18      345.00]

 No power flow data changed for load "1" at bus 26 [LOAD26      345.00]

 Power flow data changed for load "1" at bus 29 [LOAD29      345.00]:
 X--ORIGINAL--X  X-NEW VALUE--X  DATA ITEM
   -86.3522        -121.596      PL

 Channel output file is "./Cases/IEEE39_RE.out"

 42 diagonal and 70 off-diagonal elements

 No power flow data changed for load "1" at bus 12 [LOAD12      138.00]

 No power flow data changed for load "1" at bus 7 [LOAD7       345.00]

 No power flow data changed for load "1" at bus 8 [LOAD8       345.00]

 No power flow data changed for load "1" at bus 23 [LOAD23      345.00]

 No power flow data changed for load "1" at bus 16 [LOAD16      345.00]

 No power flow data changed for load "1" at bus 18 [LOAD18      345.00]

 No power flow data changed for load "1" at bus 26 [LOAD26      345.00]

 Power flow data changed for load "1" at bus 29 [LOAD29      345.00]:
 X--ORIGINAL--X  X-NEW VALUE--X  DATA ITEM
   -121.596        -151.629      PL

 Channel output file is "./Cases/IEEE39_RE.out"

 42 diagonal and 70 off-diagonal elements
     LTC DELAY TIMER RESET
     LTC DELAY TIMER RESET

 No power flow data changed for load "1" at bus 12 [LOAD12      138.00]

 No power flow data changed for load "1" at bus 7 [LOAD7       345.00]

 No power flow data changed for load "1" at bus 8 [LOAD8       345.00]

 No power flow data changed for load "1" at bus 23 [LOAD23      345.00]

 No power flow data changed for load "1" at bus 16 [LOAD16      345.00]

 No power flow data changed for load "1" at bus 18 [LOAD18      345.00]

 No power flow data changed for load "1" at bus 26 [LOAD26      345.00]

 Power flow data changed for load "1" at bus 29 [LOAD29      345.00]:
 X--ORIGINAL--X  X-NEW VALUE--X  DATA ITEM
   -151.629        -175.830      PL

 Channel output file is "./Cases/IEEE39_RE.out"

 42 diagonal and 70 off-diagonal elements
     LTC DELAY TIMER RESET
     LTC DELAY TIMER RESET

 No power flow data changed for load "1" at bus 12 [LOAD12      138.00]

 No power flow data changed for load "1" at bus 7 [LOAD7       345.00]

 No power flow data changed for load "1" at bus 8 [LOAD8       345.00]

 No power flow data changed for load "1" at bus 23 [LOAD23      345.00]

 No power flow data changed for load "1" at bus 16 [LOAD16      345.00]

 No power flow data changed for load "1" at bus 18 [LOAD18      345.00]

 No power flow data changed for load "1" at bus 26 [LOAD26      345.00]

 Power flow data changed for load "1" at bus 29 [LOAD29      345.00]:
 X--ORIGINAL--X  X-NEW VALUE--X  DATA ITEM
   -175.830        -193.411      PL

 Channel output file is "./Cases/IEEE39_RE.out"

 42 diagonal and 70 off-diagonal elements

 No power flow data changed for load "1" at bus 12 [LOAD12      138.00]

 No power flow data changed for load "1" at bus 7 [LOAD7       345.00]

 No power flow data changed for load "1" at bus 8 [LOAD8       345.00]

 No power flow data changed for load "1" at bus 23 [LOAD23      345.00]

 No power flow data changed for load "1" at bus 16 [LOAD16      345.00]

 No power flow data changed for load "1" at bus 18 [LOAD18      345.00]

 No power flow data changed for load "1" at bus 26 [LOAD26      345.00]

 Power flow data changed for load "1" at bus 29 [LOAD29      345.00]:
 X--ORIGINAL--X  X-NEW VALUE--X  DATA ITEM
   -193.411        -203.491      PL

 Channel output file is "./Cases/IEEE39_RE.out"

 42 diagonal and 70 off-diagonal elements
 LTC DELAY TIMER STARTED AT                20 LOAD20       138.00 1  V= 1.0201 AT TIME=   2.696

 No power flow data changed for load "1" at bus 12 [LOAD12      138.00]

 No power flow data changed for load "1" at bus 7 [LOAD7       345.00]

 No power flow data changed for load "1" at bus 8 [LOAD8       345.00]

 No power flow data changed for load "1" at bus 23 [LOAD23      345.00]

 No power flow data changed for load "1" at bus 16 [LOAD16      345.00]

 No power flow data changed for load "1" at bus 18 [LOAD18      345.00]

 No power flow data changed for load "1" at bus 26 [LOAD26      345.00]

 Power flow data changed for load "1" at bus 29 [LOAD29      345.00]:
 X--ORIGINAL--X  X-NEW VALUE--X  DATA ITEM
   -203.491        -205.304      PL

 Channel output file is "./Cases/IEEE39_RE.out"

 42 diagonal and 70 off-diagonal elements

 No power flow data changed for load "1" at bus 12 [LOAD12      138.00]

 No power flow data changed for load "1" at bus 7 [LOAD7       345.00]

 No power flow data changed for load "1" at bus 8 [LOAD8       345.00]

 No power flow data changed for load "1" at bus 23 [LOAD23      345.00]

 No power flow data changed for load "1" at bus 16 [LOAD16      345.00]

 No power flow data changed for load "1" at bus 18 [LOAD18      345.00]

 No power flow data changed for load "1" at bus 26 [LOAD26      345.00]

 Power flow data changed for load "1" at bus 29 [LOAD29      345.00]:
 X--ORIGINAL--X  X-NEW VALUE--X  DATA ITEM
   -205.304        -198.329      PL

 Channel output file is "./Cases/IEEE39_RE.out"

 42 diagonal and 70 off-diagonal elements
 LTC DELAY TIMER STARTED AT                25 LOAD25       345.00 1  V= 1.0200 AT TIME=   2.870
 LTC DELAY TIMER STARTED AT                27 LOAD27       345.00 1  V= 1.0201 AT TIME=   2.886

 No power flow data changed for load "1" at bus 12 [LOAD12      138.00]

 No power flow data changed for load "1" at bus 7 [LOAD7       345.00]

 No power flow data changed for load "1" at bus 8 [LOAD8       345.00]

 No power flow data changed for load "1" at bus 23 [LOAD23      345.00]

 No power flow data changed for load "1" at bus 16 [LOAD16      345.00]

 No power flow data changed for load "1" at bus 18 [LOAD18      345.00]

 No power flow data changed for load "1" at bus 26 [LOAD26      345.00]

 Power flow data changed for load "1" at bus 29 [LOAD29      345.00]:
 X--ORIGINAL--X  X-NEW VALUE--X  DATA ITEM
   -198.329        -182.325      PL

 Channel output file is "./Cases/IEEE39_RE.out"

 42 diagonal and 70 off-diagonal elements
 LTC DELAY TIMER STARTED AT                28 LOAD28       345.00 1  V= 1.0201 AT TIME=   2.908

 No power flow data changed for load "1" at bus 12 [LOAD12      138.00]

 No power flow data changed for load "1" at bus 7 [LOAD7       345.00]

 No power flow data changed for load "1" at bus 8 [LOAD8       345.00]

 No power flow data changed for load "1" at bus 23 [LOAD23      345.00]

 No power flow data changed for load "1" at bus 16 [LOAD16      345.00]

 No power flow data changed for load "1" at bus 18 [LOAD18      345.00]

 No power flow data changed for load "1" at bus 26 [LOAD26      345.00]

 Power flow data changed for load "1" at bus 29 [LOAD29      345.00]:
 X--ORIGINAL--X  X-NEW VALUE--X  DATA ITEM
   -182.325        -157.343      PL

 Channel output file is "./Cases/IEEE39_RE.out"

 42 diagonal and 70 off-diagonal elements

 No power flow data changed for load "1" at bus 12 [LOAD12      138.00]

 No power flow data changed for load "1" at bus 7 [LOAD7       345.00]

 No power flow data changed for load "1" at bus 8 [LOAD8       345.00]

 No power flow data changed for load "1" at bus 23 [LOAD23      345.00]

 No power flow data changed for load "1" at bus 16 [LOAD16      345.00]

 No power flow data changed for load "1" at bus 18 [LOAD18      345.00]

 No power flow data changed for load "1" at bus 26 [LOAD26      345.00]

 Power flow data changed for load "1" at bus 29 [LOAD29      345.00]:
 X--ORIGINAL--X  X-NEW VALUE--X  DATA ITEM
   -157.343        -123.757      PL

 Channel output file is "./Cases/IEEE39_RE.out"

 42 diagonal and 70 off-diagonal elements

 No power flow data changed for load "1" at bus 12 [LOAD12      138.00]

 No power flow data changed for load "1" at bus 7 [LOAD7       345.00]

 No power flow data changed for load "1" at bus 8 [LOAD8       345.00]

 No power flow data changed for load "1" at bus 23 [LOAD23      345.00]

 No power flow data changed for load "1" at bus 16 [LOAD16      345.00]

 No power flow data changed for load "1" at bus 18 [LOAD18      345.00]

 No power flow data changed for load "1" at bus 26 [LOAD26      345.00]

 Power flow data changed for load "1" at bus 29 [LOAD29      345.00]:
 X--ORIGINAL--X  X-NEW VALUE--X  DATA ITEM
   -123.757        -82.2873      PL

 Channel output file is "./Cases/IEEE39_RE.out"

 42 diagonal and 70 off-diagonal elements

 No power flow data changed for load "1" at bus 12 [LOAD12      138.00]

 No power flow data changed for load "1" at bus 7 [LOAD7       345.00]

 No power flow data changed for load "1" at bus 8 [LOAD8       345.00]

 No power flow data changed for load "1" at bus 23 [LOAD23      345.00]

 No power flow data changed for load "1" at bus 16 [LOAD16      345.00]

 No power flow data changed for load "1" at bus 18 [LOAD18      345.00]

 No power flow data changed for load "1" at bus 26 [LOAD26      345.00]

 Power flow data changed for load "1" at bus 29 [LOAD29      345.00]:
 X--ORIGINAL--X  X-NEW VALUE--X  DATA ITEM
   -82.2873        -34.0192      PL

 Channel output file is "./Cases/IEEE39_RE.out"

 42 diagonal and 70 off-diagonal elements

 No power flow data changed for load "1" at bus 12 [LOAD12      138.00]

 No power flow data changed for load "1" at bus 7 [LOAD7       345.00]

 No power flow data changed for load "1" at bus 8 [LOAD8       345.00]

 No power flow data changed for load "1" at bus 23 [LOAD23      345.00]

 No power flow data changed for load "1" at bus 16 [LOAD16      345.00]

 No power flow data changed for load "1" at bus 18 [LOAD18      345.00]

 No power flow data changed for load "1" at bus 26 [LOAD26      345.00]

 Power flow data changed for load "1" at bus 29 [LOAD29      345.00]:
 X--ORIGINAL--X  X-NEW VALUE--X  DATA ITEM
   -34.0192         19.5958      PL

 Channel output file is "./Cases/IEEE39_RE.out"

 42 diagonal and 70 off-diagonal elements

 No power flow data changed for load "1" at bus 12 [LOAD12      138.00]

 No power flow data changed for load "1" at bus 7 [LOAD7       345.00]

 No power flow data changed for load "1" at bus 8 [LOAD8       345.00]

 No power flow data changed for load "1" at bus 23 [LOAD23      345.00]

 No power flow data changed for load "1" at bus 16 [LOAD16      345.00]

 No power flow data changed for load "1" at bus 18 [LOAD18      345.00]

 No power flow data changed for load "1" at bus 26 [LOAD26      345.00]

 Power flow data changed for load "1" at bus 29 [LOAD29      345.00]:
 X--ORIGINAL--X  X-NEW VALUE--X  DATA ITEM
    19.5958         76.6629      PL

 Channel output file is "./Cases/IEEE39_RE.out"

 42 diagonal and 70 off-diagonal elements

 No power flow data changed for load "1" at bus 12 [LOAD12      138.00]

 No power flow data changed for load "1" at bus 7 [LOAD7       345.00]

 No power flow data changed for load "1" at bus 8 [LOAD8       345.00]

 No power flow data changed for load "1" at bus 23 [LOAD23      345.00]

 No power flow data changed for load "1" at bus 16 [LOAD16      345.00]

 No power flow data changed for load "1" at bus 18 [LOAD18      345.00]

 No power flow data changed for load "1" at bus 26 [LOAD26      345.00]

 Power flow data changed for load "1" at bus 29 [LOAD29      345.00]:
 X--ORIGINAL--X  X-NEW VALUE--X  DATA ITEM
    76.6629         134.667      PL

 Channel output file is "./Cases/IEEE39_RE.out"

 42 diagonal and 70 off-diagonal elements

 No power flow data changed for load "1" at bus 12 [LOAD12      138.00]

 No power flow data changed for load "1" at bus 7 [LOAD7       345.00]

 No power flow data changed for load "1" at bus 8 [LOAD8       345.00]

 No power flow data changed for load "1" at bus 23 [LOAD23      345.00]

 No power flow data changed for load "1" at bus 16 [LOAD16      345.00]

 No power flow data changed for load "1" at bus 18 [LOAD18      345.00]

 No power flow data changed for load "1" at bus 26 [LOAD26      345.00]

 Power flow data changed for load "1" at bus 29 [LOAD29      345.00]:
 X--ORIGINAL--X  X-NEW VALUE--X  DATA ITEM
    134.667         190.307      PL

 Channel output file is "./Cases/IEEE39_RE.out"

 42 diagonal and 70 off-diagonal elements

 No power flow data changed for load "1" at bus 12 [LOAD12      138.00]

 No power flow data changed for load "1" at bus 7 [LOAD7       345.00]

 No power flow data changed for load "1" at bus 8 [LOAD8       345.00]

 No power flow data changed for load "1" at bus 23 [LOAD23      345.00]

 No power flow data changed for load "1" at bus 16 [LOAD16      345.00]

 No power flow data changed for load "1" at bus 18 [LOAD18      345.00]

 No power flow data changed for load "1" at bus 26 [LOAD26      345.00]

 Power flow data changed for load "1" at bus 29 [LOAD29      345.00]:
 X--ORIGINAL--X  X-NEW VALUE--X  DATA ITEM
    190.307         239.576      PL

 Channel output file is "./Cases/IEEE39_RE.out"

 42 diagonal and 70 off-diagonal elements

 No power flow data changed for load "1" at bus 12 [LOAD12      138.00]

 No power flow data changed for load "1" at bus 7 [LOAD7       345.00]

 No power flow data changed for load "1" at bus 8 [LOAD8       345.00]

 No power flow data changed for load "1" at bus 23 [LOAD23      345.00]

 No power flow data changed for load "1" at bus 16 [LOAD16      345.00]

 No power flow data changed for load "1" at bus 18 [LOAD18      345.00]

 No power flow data changed for load "1" at bus 26 [LOAD26      345.00]

 Power flow data changed for load "1" at bus 29 [LOAD29      345.00]:
 X--ORIGINAL--X  X-NEW VALUE--X  DATA ITEM
    239.576         278.160      PL

 Channel output file is "./Cases/IEEE39_RE.out"

 42 diagonal and 70 off-diagonal elements
     LTC DELAY TIMER RESET

 No power flow data changed for load "1" at bus 12 [LOAD12      138.00]

 No power flow data changed for load "1" at bus 7 [LOAD7       345.00]

 No power flow data changed for load "1" at bus 8 [LOAD8       345.00]

 No power flow data changed for load "1" at bus 23 [LOAD23      345.00]

 No power flow data changed for load "1" at bus 16 [LOAD16      345.00]

 No power flow data changed for load "1" at bus 18 [LOAD18      345.00]

 No power flow data changed for load "1" at bus 26 [LOAD26      345.00]

 Power flow data changed for load "1" at bus 29 [LOAD29      345.00]:
 X--ORIGINAL--X  X-NEW VALUE--X  DATA ITEM
    278.160         302.076      PL

 Channel output file is "./Cases/IEEE39_RE.out"

 42 diagonal and 70 off-diagonal elements
     LTC DELAY TIMER RESET
     LTC DELAY TIMER RESET

 No power flow data changed for load "1" at bus 12 [LOAD12      138.00]

 No power flow data changed for load "1" at bus 7 [LOAD7       345.00]

 No power flow data changed for load "1" at bus 8 [LOAD8       345.00]

 No power flow data changed for load "1" at bus 23 [LOAD23      345.00]

 No power flow data changed for load "1" at bus 16 [LOAD16      345.00]

 No power flow data changed for load "1" at bus 18 [LOAD18      345.00]

 No power flow data changed for load "1" at bus 26 [LOAD26      345.00]

 Power flow data changed for load "1" at bus 29 [LOAD29      345.00]:
 X--ORIGINAL--X  X-NEW VALUE--X  DATA ITEM
    302.076         308.350      PL

 Channel output file is "./Cases/IEEE39_RE.out"

 42 diagonal and 70 off-diagonal elements
     LTC DELAY TIMER RESET

 No power flow data changed for load "1" at bus 12 [LOAD12      138.00]

 No power flow data changed for load "1" at bus 7 [LOAD7       345.00]

 No power flow data changed for load "1" at bus 8 [LOAD8       345.00]

 No power flow data changed for load "1" at bus 23 [LOAD23      345.00]

 No power flow data changed for load "1" at bus 16 [LOAD16      345.00]

 No power flow data changed for load "1" at bus 18 [LOAD18      345.00]

 No power flow data changed for load "1" at bus 26 [LOAD26      345.00]

 Power flow data changed for load "1" at bus 29 [LOAD29      345.00]:
 X--ORIGINAL--X  X-NEW VALUE--X  DATA ITEM
    308.350         295.585      PL

 Channel output file is "./Cases/IEEE39_RE.out"

 42 diagonal and 70 off-diagonal elements
 LTC DELAY TIMER STARTED AT                28 LOAD28       345.00 1  V= 1.0000 AT TIME=   4.264

 No power flow data changed for load "1" at bus 12 [LOAD12      138.00]

 No power flow data changed for load "1" at bus 7 [LOAD7       345.00]

 No power flow data changed for load "1" at bus 8 [LOAD8       345.00]

 No power flow data changed for load "1" at bus 23 [LOAD23      345.00]

 No power flow data changed for load "1" at bus 16 [LOAD16      345.00]

 No power flow data changed for load "1" at bus 18 [LOAD18      345.00]

 No power flow data changed for load "1" at bus 26 [LOAD26      345.00]

 Power flow data changed for load "1" at bus 29 [LOAD29      345.00]:
 X--ORIGINAL--X  X-NEW VALUE--X  DATA ITEM
    295.585         264.310      PL

 Channel output file is "./Cases/IEEE39_RE.out"

 42 diagonal and 70 off-diagonal elements
 LTC DELAY TIMER STARTED AT                20 LOAD20       138.00 1  V= 0.9999 AT TIME=   4.304
 LTC DELAY TIMER STARTED AT                25 LOAD25       345.00 1  V= 0.9999 AT TIME=   4.340
 LTC DELAY TIMER STARTED AT                27 LOAD27       345.00 1  V= 0.9999 AT TIME=   4.342

 No power flow data changed for load "1" at bus 12 [LOAD12      138.00]

 No power flow data changed for load "1" at bus 7 [LOAD7       345.00]

 No power flow data changed for load "1" at bus 8 [LOAD8       345.00]

 No power flow data changed for load "1" at bus 23 [LOAD23      345.00]

 No power flow data changed for load "1" at bus 16 [LOAD16      345.00]

 No power flow data changed for load "1" at bus 18 [LOAD18      345.00]

 No power flow data changed for load "1" at bus 26 [LOAD26      345.00]

 Power flow data changed for load "1" at bus 29 [LOAD29      345.00]:
 X--ORIGINAL--X  X-NEW VALUE--X  DATA ITEM
    264.310         217.023      PL

 Channel output file is "./Cases/IEEE39_RE.out"

 42 diagonal and 70 off-diagonal elements

 No power flow data changed for load "1" at bus 12 [LOAD12      138.00]

 No power flow data changed for load "1" at bus 7 [LOAD7       345.00]

 No power flow data changed for load "1" at bus 8 [LOAD8       345.00]

 No power flow data changed for load "1" at bus 23 [LOAD23      345.00]

 No power flow data changed for load "1" at bus 16 [LOAD16      345.00]

 No power flow data changed for load "1" at bus 18 [LOAD18      345.00]

 No power flow data changed for load "1" at bus 26 [LOAD26      345.00]

 Power flow data changed for load "1" at bus 29 [LOAD29      345.00]:
 X--ORIGINAL--X  X-NEW VALUE--X  DATA ITEM
    217.023         157.945      PL

 Channel output file is "./Cases/IEEE39_RE.out"

 42 diagonal and 70 off-diagonal elements

 No power flow data changed for load "1" at bus 12 [LOAD12      138.00]

 No power flow data changed for load "1" at bus 7 [LOAD7       345.00]

 No power flow data changed for load "1" at bus 8 [LOAD8       345.00]

 No power flow data changed for load "1" at bus 23 [LOAD23      345.00]

 No power flow data changed for load "1" at bus 16 [LOAD16      345.00]

 No power flow data changed for load "1" at bus 18 [LOAD18      345.00]

 No power flow data changed for load "1" at bus 26 [LOAD26      345.00]

 Power flow data changed for load "1" at bus 29 [LOAD29      345.00]:
 X--ORIGINAL--X  X-NEW VALUE--X  DATA ITEM
    157.945         92.5643      PL

 Channel output file is "./Cases/IEEE39_RE.out"

 42 diagonal and 70 off-diagonal elements

 No power flow data changed for load "1" at bus 12 [LOAD12      138.00]

 No power flow data changed for load "1" at bus 7 [LOAD7       345.00]

 No power flow data changed for load "1" at bus 8 [LOAD8       345.00]

 No power flow data changed for load "1" at bus 23 [LOAD23      345.00]

 No power flow data changed for load "1" at bus 16 [LOAD16      345.00]

 No power flow data changed for load "1" at bus 18 [LOAD18      345.00]

 No power flow data changed for load "1" at bus 26 [LOAD26      345.00]

 Power flow data changed for load "1" at bus 29 [LOAD29      345.00]:
 X--ORIGINAL--X  X-NEW VALUE--X  DATA ITEM
    92.5643         26.9927      PL

 Channel output file is "./Cases/IEEE39_RE.out"

 42 diagonal and 70 off-diagonal elements

 No power flow data changed for load "1" at bus 12 [LOAD12      138.00]

 No power flow data changed for load "1" at bus 7 [LOAD7       345.00]

 No power flow data changed for load "1" at bus 8 [LOAD8       345.00]

 No power flow data changed for load "1" at bus 23 [LOAD23      345.00]

 No power flow data changed for load "1" at bus 16 [LOAD16      345.00]

 No power flow data changed for load "1" at bus 18 [LOAD18      345.00]

 No power flow data changed for load "1" at bus 26 [LOAD26      345.00]

 Power flow data changed for load "1" at bus 29 [LOAD29      345.00]:
 X--ORIGINAL--X  X-NEW VALUE--X  DATA ITEM
    26.9927        -32.8125      PL

 Channel output file is "./Cases/IEEE39_RE.out"

 42 diagonal and 70 off-diagonal elements

 No power flow data changed for load "1" at bus 12 [LOAD12      138.00]

 No power flow data changed for load "1" at bus 7 [LOAD7       345.00]

 No power flow data changed for load "1" at bus 8 [LOAD8       345.00]

 No power flow data changed for load "1" at bus 23 [LOAD23      345.00]

 No power flow data changed for load "1" at bus 16 [LOAD16      345.00]

 No power flow data changed for load "1" at bus 18 [LOAD18      345.00]

 No power flow data changed for load "1" at bus 26 [LOAD26      345.00]

 Power flow data changed for load "1" at bus 29 [LOAD29      345.00]:
 X--ORIGINAL--X  X-NEW VALUE--X  DATA ITEM
   -32.8125        -81.8067      PL

 Channel output file is "./Cases/IEEE39_RE.out"

 42 diagonal and 70 off-diagonal elements

 No power flow data changed for load "1" at bus 12 [LOAD12      138.00]

 No power flow data changed for load "1" at bus 7 [LOAD7       345.00]

 No power flow data changed for load "1" at bus 8 [LOAD8       345.00]

 No power flow data changed for load "1" at bus 23 [LOAD23      345.00]

 No power flow data changed for load "1" at bus 16 [LOAD16      345.00]

 No power flow data changed for load "1" at bus 18 [LOAD18      345.00]

 No power flow data changed for load "1" at bus 26 [LOAD26      345.00]

 Power flow data changed for load "1" at bus 29 [LOAD29      345.00]:
 X--ORIGINAL--X  X-NEW VALUE--X  DATA ITEM
   -81.8067        -116.397      PL

 Channel output file is "./Cases/IEEE39_RE.out"

 42 diagonal and 70 off-diagonal elements

 No power flow data changed for load "1" at bus 12 [LOAD12      138.00]

 No power flow data changed for load "1" at bus 7 [LOAD7       345.00]

 No power flow data changed for load "1" at bus 8 [LOAD8       345.00]

 No power flow data changed for load "1" at bus 23 [LOAD23      345.00]

 No power flow data changed for load "1" at bus 16 [LOAD16      345.00]

 No power flow data changed for load "1" at bus 18 [LOAD18      345.00]

 No power flow data changed for load "1" at bus 26 [LOAD26      345.00]

 Power flow data changed for load "1" at bus 29 [LOAD29      345.00]:
 X--ORIGINAL--X  X-NEW VALUE--X  DATA ITEM
   -116.397        -134.672      PL

 Channel output file is "./Cases/IEEE39_RE.out"

 42 diagonal and 70 off-diagonal elements

 No power flow data changed for load "1" at bus 12 [LOAD12      138.00]

 No power flow data changed for load "1" at bus 7 [LOAD7       345.00]

 No power flow data changed for load "1" at bus 8 [LOAD8       345.00]

 No power flow data changed for load "1" at bus 23 [LOAD23      345.00]

 No power flow data changed for load "1" at bus 16 [LOAD16      345.00]

 No power flow data changed for load "1" at bus 18 [LOAD18      345.00]

 No power flow data changed for load "1" at bus 26 [LOAD26      345.00]

 Power flow data changed for load "1" at bus 29 [LOAD29      345.00]:
 X--ORIGINAL--X  X-NEW VALUE--X  DATA ITEM
   -134.672        -136.374      PL

 Channel output file is "./Cases/IEEE39_RE.out"

 42 diagonal and 70 off-diagonal elements

 No power flow data changed for load "1" at bus 12 [LOAD12      138.00]

 No power flow data changed for load "1" at bus 7 [LOAD7       345.00]

 No power flow data changed for load "1" at bus 8 [LOAD8       345.00]

 No power flow data changed for load "1" at bus 23 [LOAD23      345.00]

 No power flow data changed for load "1" at bus 16 [LOAD16      345.00]

 No power flow data changed for load "1" at bus 18 [LOAD18      345.00]

 No power flow data changed for load "1" at bus 26 [LOAD26      345.00]

 Power flow data changed for load "1" at bus 29 [LOAD29      345.00]:
 X--ORIGINAL--X  X-NEW VALUE--X  DATA ITEM
   -136.374        -122.692      PL

 Channel output file is "./Cases/IEEE39_RE.out"

 42 diagonal and 70 off-diagonal elements

 No power flow data changed for load "1" at bus 12 [LOAD12      138.00]

 No power flow data changed for load "1" at bus 7 [LOAD7       345.00]

 No power flow data changed for load "1" at bus 8 [LOAD8       345.00]

 No power flow data changed for load "1" at bus 23 [LOAD23      345.00]

 No power flow data changed for load "1" at bus 16 [LOAD16      345.00]

 No power flow data changed for load "1" at bus 18 [LOAD18      345.00]

 No power flow data changed for load "1" at bus 26 [LOAD26      345.00]

 Power flow data changed for load "1" at bus 29 [LOAD29      345.00]:
 X--ORIGINAL--X  X-NEW VALUE--X  DATA ITEM
   -122.692        -95.9705      PL

 Channel output file is "./Cases/IEEE39_RE.out"

 42 diagonal and 70 off-diagonal elements

 No power flow data changed for load "1" at bus 12 [LOAD12      138.00]

 No power flow data changed for load "1" at bus 7 [LOAD7       345.00]

 No power flow data changed for load "1" at bus 8 [LOAD8       345.00]

 No power flow data changed for load "1" at bus 23 [LOAD23      345.00]

 No power flow data changed for load "1" at bus 16 [LOAD16      345.00]

 No power flow data changed for load "1" at bus 18 [LOAD18      345.00]

 No power flow data changed for load "1" at bus 26 [LOAD26      345.00]

 Power flow data changed for load "1" at bus 29 [LOAD29      345.00]:
 X--ORIGINAL--X  X-NEW VALUE--X  DATA ITEM
   -95.9705        -59.3776      PL

 Channel output file is "./Cases/IEEE39_RE.out"

 42 diagonal and 70 off-diagonal elements
     LTC DELAY TIMER RESET
     LTC DELAY TIMER RESET
     LTC DELAY TIMER RESET
     LTC DELAY TIMER RESET

 No power flow data changed for load "1" at bus 12 [LOAD12      138.00]

 No power flow data changed for load "1" at bus 7 [LOAD7       345.00]

 No power flow data changed for load "1" at bus 8 [LOAD8       345.00]

 No power flow data changed for load "1" at bus 23 [LOAD23      345.00]

 No power flow data changed for load "1" at bus 16 [LOAD16      345.00]

 No power flow data changed for load "1" at bus 18 [LOAD18      345.00]

 No power flow data changed for load "1" at bus 26 [LOAD26      345.00]

 Power flow data changed for load "1" at bus 29 [LOAD29      345.00]:
 X--ORIGINAL--X  X-NEW VALUE--X  DATA ITEM
   -59.3776        -16.5234      PL

 Channel output file is "./Cases/IEEE39_RE.out"

 42 diagonal and 70 off-diagonal elements

 No power flow data changed for load "1" at bus 12 [LOAD12      138.00]

 No power flow data changed for load "1" at bus 7 [LOAD7       345.00]

 No power flow data changed for load "1" at bus 8 [LOAD8       345.00]

 No power flow data changed for load "1" at bus 23 [LOAD23      345.00]

 No power flow data changed for load "1" at bus 16 [LOAD16      345.00]

 No power flow data changed for load "1" at bus 18 [LOAD18      345.00]

 No power flow data changed for load "1" at bus 26 [LOAD26      345.00]

 Power flow data changed for load "1" at bus 29 [LOAD29      345.00]:
 X--ORIGINAL--X  X-NEW VALUE--X  DATA ITEM
   -16.5234         28.9176      PL

 Channel output file is "./Cases/IEEE39_RE.out"

 42 diagonal and 70 off-diagonal elements
 LTC DELAY TIMER STARTED AT                20 LOAD20       138.00 1  V= 1.0201 AT TIME=   5.728

 No power flow data changed for load "1" at bus 12 [LOAD12      138.00]

 No power flow data changed for load "1" at bus 7 [LOAD7       345.00]

 No power flow data changed for load "1" at bus 8 [LOAD8       345.00]

 No power flow data changed for load "1" at bus 23 [LOAD23      345.00]

 No power flow data changed for load "1" at bus 16 [LOAD16      345.00]

 No power flow data changed for load "1" at bus 18 [LOAD18      345.00]

 No power flow data changed for load "1" at bus 26 [LOAD26      345.00]

 Power flow data changed for load "1" at bus 29 [LOAD29      345.00]:
 X--ORIGINAL--X  X-NEW VALUE--X  DATA ITEM
    28.9176         73.5121      PL

 Channel output file is "./Cases/IEEE39_RE.out"

 42 diagonal and 70 off-diagonal elements
 LTC DELAY TIMER STARTED AT                28 LOAD28       345.00 1  V= 1.0200 AT TIME=   5.806
 LTC DELAY TIMER STARTED AT                27 LOAD27       345.00 1  V= 1.0201 AT TIME=   5.810
 LTC DELAY TIMER STARTED AT                25 LOAD25       345.00 1  V= 1.0201 AT TIME=   5.882

 No power flow data changed for load "1" at bus 12 [LOAD12      138.00]

 No power flow data changed for load "1" at bus 7 [LOAD7       345.00]

 No power flow data changed for load "1" at bus 8 [LOAD8       345.00]

 No power flow data changed for load "1" at bus 23 [LOAD23      345.00]

 No power flow data changed for load "1" at bus 16 [LOAD16      345.00]

 No power flow data changed for load "1" at bus 18 [LOAD18      345.00]

 No power flow data changed for load "1" at bus 26 [LOAD26      345.00]

 Power flow data changed for load "1" at bus 29 [LOAD29      345.00]:
 X--ORIGINAL--X  X-NEW VALUE--X  DATA ITEM
    73.5121         114.271      PL

 Channel output file is "./Cases/IEEE39_RE.out"

 42 diagonal and 70 off-diagonal elements

 No power flow data changed for load "1" at bus 12 [LOAD12      138.00]

 No power flow data changed for load "1" at bus 7 [LOAD7       345.00]

 No power flow data changed for load "1" at bus 8 [LOAD8       345.00]

 No power flow data changed for load "1" at bus 23 [LOAD23      345.00]

 No power flow data changed for load "1" at bus 16 [LOAD16      345.00]

 No power flow data changed for load "1" at bus 18 [LOAD18      345.00]

 No power flow data changed for load "1" at bus 26 [LOAD26      345.00]

 Power flow data changed for load "1" at bus 29 [LOAD29      345.00]:
 X--ORIGINAL--X  X-NEW VALUE--X  DATA ITEM
    114.271         148.817      PL

 Channel output file is "./Cases/IEEE39_RE.out"

 42 diagonal and 70 off-diagonal elements

 No power flow data changed for load "1" at bus 12 [LOAD12      138.00]

 No power flow data changed for load "1" at bus 7 [LOAD7       345.00]

 No power flow data changed for load "1" at bus 8 [LOAD8       345.00]

 No power flow data changed for load "1" at bus 23 [LOAD23      345.00]

 No power flow data changed for load "1" at bus 16 [LOAD16      345.00]

 No power flow data changed for load "1" at bus 18 [LOAD18      345.00]

 No power flow data changed for load "1" at bus 26 [LOAD26      345.00]

 Power flow data changed for load "1" at bus 29 [LOAD29      345.00]:
 X--ORIGINAL--X  X-NEW VALUE--X  DATA ITEM
    148.817         175.553      PL

 Channel output file is "./Cases/IEEE39_RE.out"

 42 diagonal and 70 off-diagonal elements

 No power flow data changed for load "1" at bus 12 [LOAD12      138.00]

 No power flow data changed for load "1" at bus 7 [LOAD7       345.00]

 No power flow data changed for load "1" at bus 8 [LOAD8       345.00]

 No power flow data changed for load "1" at bus 23 [LOAD23      345.00]

 No power flow data changed for load "1" at bus 16 [LOAD16      345.00]

 No power flow data changed for load "1" at bus 18 [LOAD18      345.00]

 No power flow data changed for load "1" at bus 26 [LOAD26      345.00]

 Power flow data changed for load "1" at bus 29 [LOAD29      345.00]:
 X--ORIGINAL--X  X-NEW VALUE--X  DATA ITEM
    175.553         193.746      PL

 Channel output file is "./Cases/IEEE39_RE.out"

 42 diagonal and 70 off-diagonal elements

 No power flow data changed for load "1" at bus 12 [LOAD12      138.00]

 No power flow data changed for load "1" at bus 7 [LOAD7       345.00]

 No power flow data changed for load "1" at bus 8 [LOAD8       345.00]

 No power flow data changed for load "1" at bus 23 [LOAD23      345.00]

 No power flow data changed for load "1" at bus 16 [LOAD16      345.00]

 No power flow data changed for load "1" at bus 18 [LOAD18      345.00]

 No power flow data changed for load "1" at bus 26 [LOAD26      345.00]

 Power flow data changed for load "1" at bus 29 [LOAD29      345.00]:
 X--ORIGINAL--X  X-NEW VALUE--X  DATA ITEM
    193.746         203.435      PL

 Channel output file is "./Cases/IEEE39_RE.out"

 42 diagonal and 70 off-diagonal elements

 No power flow data changed for load "1" at bus 12 [LOAD12      138.00]

 No power flow data changed for load "1" at bus 7 [LOAD7       345.00]

 No power flow data changed for load "1" at bus 8 [LOAD8       345.00]

 No power flow data changed for load "1" at bus 23 [LOAD23      345.00]

 No power flow data changed for load "1" at bus 16 [LOAD16      345.00]

 No power flow data changed for load "1" at bus 18 [LOAD18      345.00]

 No power flow data changed for load "1" at bus 26 [LOAD26      345.00]

 Power flow data changed for load "1" at bus 29 [LOAD29      345.00]:
 X--ORIGINAL--X  X-NEW VALUE--X  DATA ITEM
    203.435         205.191      PL

 Channel output file is "./Cases/IEEE39_RE.out"

 42 diagonal and 70 off-diagonal elements

 No power flow data changed for load "1" at bus 12 [LOAD12      138.00]

 No power flow data changed for load "1" at bus 7 [LOAD7       345.00]

 No power flow data changed for load "1" at bus 8 [LOAD8       345.00]

 No power flow data changed for load "1" at bus 23 [LOAD23      345.00]

 No power flow data changed for load "1" at bus 16 [LOAD16      345.00]

 No power flow data changed for load "1" at bus 18 [LOAD18      345.00]

 No power flow data changed for load "1" at bus 26 [LOAD26      345.00]

 Power flow data changed for load "1" at bus 29 [LOAD29      345.00]:
 X--ORIGINAL--X  X-NEW VALUE--X  DATA ITEM
    205.191         199.834      PL

 Channel output file is "./Cases/IEEE39_RE.out"

 42 diagonal and 70 off-diagonal elements

 No power flow data changed for load "1" at bus 12 [LOAD12      138.00]

 No power flow data changed for load "1" at bus 7 [LOAD7       345.00]

 No power flow data changed for load "1" at bus 8 [LOAD8       345.00]

 No power flow data changed for load "1" at bus 23 [LOAD23      345.00]

 No power flow data changed for load "1" at bus 16 [LOAD16      345.00]

 No power flow data changed for load "1" at bus 18 [LOAD18      345.00]

 No power flow data changed for load "1" at bus 26 [LOAD26      345.00]

 Power flow data changed for load "1" at bus 29 [LOAD29      345.00]:
 X--ORIGINAL--X  X-NEW VALUE--X  DATA ITEM
    199.834         188.203      PL

 Channel output file is "./Cases/IEEE39_RE.out"

 42 diagonal and 70 off-diagonal elements

 No power flow data changed for load "1" at bus 12 [LOAD12      138.00]

 No power flow data changed for load "1" at bus 7 [LOAD7       345.00]

 No power flow data changed for load "1" at bus 8 [LOAD8       345.00]

 No power flow data changed for load "1" at bus 23 [LOAD23      345.00]

 No power flow data changed for load "1" at bus 16 [LOAD16      345.00]

 No power flow data changed for load "1" at bus 18 [LOAD18      345.00]

 No power flow data changed for load "1" at bus 26 [LOAD26      345.00]

 Power flow data changed for load "1" at bus 29 [LOAD29      345.00]:
 X--ORIGINAL--X  X-NEW VALUE--X  DATA ITEM
    188.203         171.041      PL

 Channel output file is "./Cases/IEEE39_RE.out"

 42 diagonal and 70 off-diagonal elements
     LTC DELAY TIMER RESET

 No power flow data changed for load "1" at bus 12 [LOAD12      138.00]

 No power flow data changed for load "1" at bus 7 [LOAD7       345.00]

 No power flow data changed for load "1" at bus 8 [LOAD8       345.00]

 No power flow data changed for load "1" at bus 23 [LOAD23      345.00]

 No power flow data changed for load "1" at bus 16 [LOAD16      345.00]

 No power flow data changed for load "1" at bus 18 [LOAD18      345.00]

 No power flow data changed for load "1" at bus 26 [LOAD26      345.00]

 Power flow data changed for load "1" at bus 29 [LOAD29      345.00]:
 X--ORIGINAL--X  X-NEW VALUE--X  DATA ITEM
    171.041         149.006      PL

 Channel output file is "./Cases/IEEE39_RE.out"

 42 diagonal and 70 off-diagonal elements
     LTC DELAY TIMER RESET
     LTC DELAY TIMER RESET
     LTC DELAY TIMER RESET

 No power flow data changed for load "1" at bus 12 [LOAD12      138.00]

 No power flow data changed for load "1" at bus 7 [LOAD7       345.00]

 No power flow data changed for load "1" at bus 8 [LOAD8       345.00]

 No power flow data changed for load "1" at bus 23 [LOAD23      345.00]

 No power flow data changed for load "1" at bus 16 [LOAD16      345.00]

 No power flow data changed for load "1" at bus 18 [LOAD18      345.00]

 No power flow data changed for load "1" at bus 26 [LOAD26      345.00]

 Power flow data changed for load "1" at bus 29 [LOAD29      345.00]:
 X--ORIGINAL--X  X-NEW VALUE--X  DATA ITEM
    149.006         122.735      PL

 Channel output file is "./Cases/IEEE39_RE.out"

 42 diagonal and 70 off-diagonal elements

 No power flow data changed for load "1" at bus 12 [LOAD12      138.00]

 No power flow data changed for load "1" at bus 7 [LOAD7       345.00]

 No power flow data changed for load "1" at bus 8 [LOAD8       345.00]

 No power flow data changed for load "1" at bus 23 [LOAD23      345.00]

 No power flow data changed for load "1" at bus 16 [LOAD16      345.00]

 No power flow data changed for load "1" at bus 18 [LOAD18      345.00]

 No power flow data changed for load "1" at bus 26 [LOAD26      345.00]

 Power flow data changed for load "1" at bus 29 [LOAD29      345.00]:
 X--ORIGINAL--X  X-NEW VALUE--X  DATA ITEM
    122.735         92.9395      PL

 Channel output file is "./Cases/IEEE39_RE.out"

 42 diagonal and 70 off-diagonal elements
 LTC DELAY TIMER STARTED AT                20 LOAD20       138.00 1  V= 0.9999 AT TIME=   7.072
 LTC DELAY TIMER STARTED AT                28 LOAD28       345.00 1  V= 0.9999 AT TIME=   7.086

 No power flow data changed for load "1" at bus 12 [LOAD12      138.00]

 No power flow data changed for load "1" at bus 7 [LOAD7       345.00]

 No power flow data changed for load "1" at bus 8 [LOAD8       345.00]

 No power flow data changed for load "1" at bus 23 [LOAD23      345.00]

 No power flow data changed for load "1" at bus 16 [LOAD16      345.00]

 No power flow data changed for load "1" at bus 18 [LOAD18      345.00]

 No power flow data changed for load "1" at bus 26 [LOAD26      345.00]

 Power flow data changed for load "1" at bus 29 [LOAD29      345.00]:
 X--ORIGINAL--X  X-NEW VALUE--X  DATA ITEM
    92.9395         60.5682      PL

 Channel output file is "./Cases/IEEE39_RE.out"

 42 diagonal and 70 off-diagonal elements
 LTC DELAY TIMER STARTED AT                27 LOAD27       345.00 1  V= 0.9999 AT TIME=   7.122
 LTC DELAY TIMER STARTED AT                25 LOAD25       345.00 1  V= 0.9999 AT TIME=   7.160

 No power flow data changed for load "1" at bus 12 [LOAD12      138.00]

 No power flow data changed for load "1" at bus 7 [LOAD7       345.00]

 No power flow data changed for load "1" at bus 8 [LOAD8       345.00]

 No power flow data changed for load "1" at bus 23 [LOAD23      345.00]

 No power flow data changed for load "1" at bus 16 [LOAD16      345.00]

 No power flow data changed for load "1" at bus 18 [LOAD18      345.00]

 No power flow data changed for load "1" at bus 26 [LOAD26      345.00]

 Power flow data changed for load "1" at bus 29 [LOAD29      345.00]:
 X--ORIGINAL--X  X-NEW VALUE--X  DATA ITEM
    60.5682         26.9767      PL

 Channel output file is "./Cases/IEEE39_RE.out"

 42 diagonal and 70 off-diagonal elements

 No power flow data changed for load "1" at bus 12 [LOAD12      138.00]

 No power flow data changed for load "1" at bus 7 [LOAD7       345.00]

 No power flow data changed for load "1" at bus 8 [LOAD8       345.00]

 No power flow data changed for load "1" at bus 23 [LOAD23      345.00]

 No power flow data changed for load "1" at bus 16 [LOAD16      345.00]

 No power flow data changed for load "1" at bus 18 [LOAD18      345.00]

 No power flow data changed for load "1" at bus 26 [LOAD26      345.00]

 Power flow data changed for load "1" at bus 29 [LOAD29      345.00]:
 X--ORIGINAL--X  X-NEW VALUE--X  DATA ITEM
    26.9767        -6.04839      PL

 Channel output file is "./Cases/IEEE39_RE.out"

 42 diagonal and 70 off-diagonal elements

 No power flow data changed for load "1" at bus 12 [LOAD12      138.00]

 No power flow data changed for load "1" at bus 7 [LOAD7       345.00]

 No power flow data changed for load "1" at bus 8 [LOAD8       345.00]

 No power flow data changed for load "1" at bus 23 [LOAD23      345.00]

 No power flow data changed for load "1" at bus 16 [LOAD16      345.00]

 No power flow data changed for load "1" at bus 18 [LOAD18      345.00]

 No power flow data changed for load "1" at bus 26 [LOAD26      345.00]

 Power flow data changed for load "1" at bus 29 [LOAD29      345.00]:
 X--ORIGINAL--X  X-NEW VALUE--X  DATA ITEM
   -6.04839        -36.5349      PL

 Channel output file is "./Cases/IEEE39_RE.out"

 42 diagonal and 70 off-diagonal elements

 No power flow data changed for load "1" at bus 12 [LOAD12      138.00]

 No power flow data changed for load "1" at bus 7 [LOAD7       345.00]

 No power flow data changed for load "1" at bus 8 [LOAD8       345.00]

 No power flow data changed for load "1" at bus 23 [LOAD23      345.00]

 No power flow data changed for load "1" at bus 16 [LOAD16      345.00]

 No power flow data changed for load "1" at bus 18 [LOAD18      345.00]

 No power flow data changed for load "1" at bus 26 [LOAD26      345.00]

 Power flow data changed for load "1" at bus 29 [LOAD29      345.00]:
 X--ORIGINAL--X  X-NEW VALUE--X  DATA ITEM
   -36.5349        -62.8051      PL

 Channel output file is "./Cases/IEEE39_RE.out"

 42 diagonal and 70 off-diagonal elements

 No power flow data changed for load "1" at bus 12 [LOAD12      138.00]

 No power flow data changed for load "1" at bus 7 [LOAD7       345.00]

 No power flow data changed for load "1" at bus 8 [LOAD8       345.00]

 No power flow data changed for load "1" at bus 23 [LOAD23      345.00]

 No power flow data changed for load "1" at bus 16 [LOAD16      345.00]

 No power flow data changed for load "1" at bus 18 [LOAD18      345.00]

 No power flow data changed for load "1" at bus 26 [LOAD26      345.00]

 Power flow data changed for load "1" at bus 29 [LOAD29      345.00]:
 X--ORIGINAL--X  X-NEW VALUE--X  DATA ITEM
   -62.8051        -83.9621      PL

 Channel output file is "./Cases/IEEE39_RE.out"

 42 diagonal and 70 off-diagonal elements

[...]

 No power flow data changed for load "1" at bus 16 [LOAD16      345.00]

 No power flow data changed for load "1" at bus 18 [LOAD18      345.00]

 No power flow data changed for load "1" at bus 26 [LOAD26      345.00]

 Power flow data changed for load "1" at bus 29 [LOAD29      345.00]:
 X--ORIGINAL--X  X-NEW VALUE--X  DATA ITEM
    32.4156         10.9532      PL

 Channel output file is "./Cases/IEEE39_RE.out"

 42 diagonal and 70 off-diagonal elements

 No power flow data changed for load "1" at bus 12 [LOAD12      138.00]

 No power flow data changed for load "1" at bus 7 [LOAD7       345.00]

 No power flow data changed for load "1" at bus 8 [LOAD8       345.00]

 No power flow data changed for load "1" at bus 23 [LOAD23      345.00]

 No power flow data changed for load "1" at bus 16 [LOAD16      345.00]

 No power flow data changed for load "1" at bus 18 [LOAD18      345.00]

 No power flow data changed for load "1" at bus 26 [LOAD26      345.00]

 Power flow data changed for load "1" at bus 29 [LOAD29      345.00]:
 X--ORIGINAL--X  X-NEW VALUE--X  DATA ITEM
    10.9532        -16.7546      PL

 Channel output file is "./Cases/IEEE39_RE.out"

 42 diagonal and 70 off-diagonal elements

 No power flow data changed for load "1" at bus 12 [LOAD12      138.00]

 No power flow data changed for load "1" at bus 7 [LOAD7       345.00]

 No power flow data changed for load "1" at bus 8 [LOAD8       345.00]

 No power flow data changed for load "1" at bus 23 [LOAD23      345.00]

 No power flow data changed for load "1" at bus 16 [LOAD16      345.00]

 No power flow data changed for load "1" at bus 18 [LOAD18      345.00]

 No power flow data changed for load "1" at bus 26 [LOAD26      345.00]

 Power flow data changed for load "1" at bus 29 [LOAD29      345.00]:
 X--ORIGINAL--X  X-NEW VALUE--X  DATA ITEM
   -16.7546        -48.6723      PL

 Channel output file is "./Cases/IEEE39_RE.out"

 42 diagonal and 70 off-diagonal elements

 No power flow data changed for load "1" at bus 12 [LOAD12      138.00]

 No power flow data changed for load "1" at bus 7 [LOAD7       345.00]

 No power flow data changed for load "1" at bus 8 [LOAD8       345.00]

 No power flow data changed for load "1" at bus 23 [LOAD23      345.00]

 No power flow data changed for load "1" at bus 16 [LOAD16      345.00]

 No power flow data changed for load "1" at bus 18 [LOAD18      345.00]

 No power flow data changed for load "1" at bus 26 [LOAD26      345.00]

 Power flow data changed for load "1" at bus 29 [LOAD29      345.00]:
 X--ORIGINAL--X  X-NEW VALUE--X  DATA ITEM
   -48.6723        -82.2597      PL

 Channel output file is "./Cases/IEEE39_RE.out"

 42 diagonal and 70 off-diagonal elements

 No power flow data changed for load "1" at bus 12 [LOAD12      138.00]

 No power flow data changed for load "1" at bus 7 [LOAD7       345.00]

 No power flow data changed for load "1" at bus 8 [LOAD8       345.00]

 No power flow data changed for load "1" at bus 23 [LOAD23      345.00]

 No power flow data changed for load "1" at bus 16 [LOAD16      345.00]

 No power flow data changed for load "1" at bus 18 [LOAD18      345.00]

 No power flow data changed for load "1" at bus 26 [LOAD26      345.00]

 Power flow data changed for load "1" at bus 29 [LOAD29      345.00]:
 X--ORIGINAL--X  X-NEW VALUE--X  DATA ITEM
   -82.2597        -114.856      PL

 Channel output file is "./Cases/IEEE39_RE.out"

 42 diagonal and 70 off-diagonal elements
 LTC DELAY TIMER STARTED AT                28 LOAD28       345.00 1  V= 1.0000 AT TIME=  27.850

 No power flow data changed for load "1" at bus 12 [LOAD12      138.00]

 No power flow data changed for load "1" at bus 7 [LOAD7       345.00]

 No power flow data changed for load "1" at bus 8 [LOAD8       345.00]

 No power flow data changed for load "1" at bus 23 [LOAD23      345.00]

 No power flow data changed for load "1" at bus 16 [LOAD16      345.00]

 No power flow data changed for load "1" at bus 18 [LOAD18      345.00]

 No power flow data changed for load "1" at bus 26 [LOAD26      345.00]

 Power flow data changed for load "1" at bus 29 [LOAD29      345.00]:
 X--ORIGINAL--X  X-NEW VALUE--X  DATA ITEM
   -114.856        -144.027      PL

 Channel output file is "./Cases/IEEE39_RE.out"

 42 diagonal and 70 off-diagonal elements
 LTC DELAY TIMER STARTED AT                27 LOAD27       345.00 1  V= 1.0000 AT TIME=  27.948

 No power flow data changed for load "1" at bus 12 [LOAD12      138.00]

 No power flow data changed for load "1" at bus 7 [LOAD7       345.00]

 No power flow data changed for load "1" at bus 8 [LOAD8       345.00]

 No power flow data changed for load "1" at bus 23 [LOAD23      345.00]

 No power flow data changed for load "1" at bus 16 [LOAD16      345.00]

 No power flow data changed for load "1" at bus 18 [LOAD18      345.00]

 No power flow data changed for load "1" at bus 26 [LOAD26      345.00]

 Power flow data changed for load "1" at bus 29 [LOAD29      345.00]:
 X--ORIGINAL--X  X-NEW VALUE--X  DATA ITEM
   -144.027        -167.752      PL

 Channel output file is "./Cases/IEEE39_RE.out"

 42 diagonal and 70 off-diagonal elements

 No power flow data changed for load "1" at bus 12 [LOAD12      138.00]

 No power flow data changed for load "1" at bus 7 [LOAD7       345.00]

 No power flow data changed for load "1" at bus 8 [LOAD8       345.00]

 No power flow data changed for load "1" at bus 23 [LOAD23      345.00]

 No power flow data changed for load "1" at bus 16 [LOAD16      345.00]

 No power flow data changed for load "1" at bus 18 [LOAD18      345.00]

 No power flow data changed for load "1" at bus 26 [LOAD26      345.00]

 Power flow data changed for load "1" at bus 29 [LOAD29      345.00]:
 X--ORIGINAL--X  X-NEW VALUE--X  DATA ITEM
   -167.752        -184.481      PL

 Channel output file is "./Cases/IEEE39_RE.out"

 42 diagonal and 70 off-diagonal elements
     LTC DELAY TIMER RESET
     LTC DELAY TIMER RESET

 No power flow data changed for load "1" at bus 12 [LOAD12      138.00]

 No power flow data changed for load "1" at bus 7 [LOAD7       345.00]

 No power flow data changed for load "1" at bus 8 [LOAD8       345.00]

 No power flow data changed for load "1" at bus 23 [LOAD23      345.00]

 No power flow data changed for load "1" at bus 16 [LOAD16      345.00]

 No power flow data changed for load "1" at bus 18 [LOAD18      345.00]

 No power flow data changed for load "1" at bus 26 [LOAD26      345.00]

 Power flow data changed for load "1" at bus 29 [LOAD29      345.00]:
 X--ORIGINAL--X  X-NEW VALUE--X  DATA ITEM
   -184.481        -193.241      PL

 Channel output file is "./Cases/IEEE39_RE.out"

 42 diagonal and 70 off-diagonal elements

 No power flow data changed for load "1" at bus 12 [LOAD12      138.00]

 No power flow data changed for load "1" at bus 7 [LOAD7       345.00]

 No power flow data changed for load "1" at bus 8 [LOAD8       345.00]

 No power flow data changed for load "1" at bus 23 [LOAD23      345.00]

 No power flow data changed for load "1" at bus 16 [LOAD16      345.00]

 No power flow data changed for load "1" at bus 18 [LOAD18      345.00]

 No power flow data changed for load "1" at bus 26 [LOAD26      345.00]

 Power flow data changed for load "1" at bus 29 [LOAD29      345.00]:
 X--ORIGINAL--X  X-NEW VALUE--X  DATA ITEM
   -193.241        -193.841      PL

 Channel output file is "./Cases/IEEE39_RE.out"

 42 diagonal and 70 off-diagonal elements

 No power flow data changed for load "1" at bus 12 [LOAD12      138.00]

 No power flow data changed for load "1" at bus 7 [LOAD7       345.00]

 No power flow data changed for load "1" at bus 8 [LOAD8       345.00]

 No power flow data changed for load "1" at bus 23 [LOAD23      345.00]

 No power flow data changed for load "1" at bus 16 [LOAD16      345.00]

 No power flow data changed for load "1" at bus 18 [LOAD18      345.00]

 No power flow data changed for load "1" at bus 26 [LOAD26      345.00]

 Power flow data changed for load "1" at bus 29 [LOAD29      345.00]:
 X--ORIGINAL--X  X-NEW VALUE--X  DATA ITEM
   -193.841        -187.048      PL

 Channel output file is "./Cases/IEEE39_RE.out"

 42 diagonal and 70 off-diagonal elements

 No power flow data changed for load "1" at bus 12 [LOAD12      138.00]

 No power flow data changed for load "1" at bus 7 [LOAD7       345.00]

 No power flow data changed for load "1" at bus 8 [LOAD8       345.00]

 No power flow data changed for load "1" at bus 23 [LOAD23      345.00]

 No power flow data changed for load "1" at bus 16 [LOAD16      345.00]

 No power flow data changed for load "1" at bus 18 [LOAD18      345.00]

 No power flow data changed for load "1" at bus 26 [LOAD26      345.00]

 Power flow data changed for load "1" at bus 29 [LOAD29      345.00]:
 X--ORIGINAL--X  X-NEW VALUE--X  DATA ITEM
   -187.048        -174.578      PL

 Channel output file is "./Cases/IEEE39_RE.out"

 42 diagonal and 70 off-diagonal elements
 LTC DELAY TIMER STARTED AT                20 LOAD20       138.00 1  V= 1.0201 AT TIME=  28.588

 No power flow data changed for load "1" at bus 12 [LOAD12      138.00]

 No power flow data changed for load "1" at bus 7 [LOAD7       345.00]

 No power flow data changed for load "1" at bus 8 [LOAD8       345.00]

 No power flow data changed for load "1" at bus 23 [LOAD23      345.00]

 No power flow data changed for load "1" at bus 16 [LOAD16      345.00]

 No power flow data changed for load "1" at bus 18 [LOAD18      345.00]

 No power flow data changed for load "1" at bus 26 [LOAD26      345.00]

 Power flow data changed for load "1" at bus 29 [LOAD29      345.00]:
 X--ORIGINAL--X  X-NEW VALUE--X  DATA ITEM
   -174.578        -158.841      PL

 Channel output file is "./Cases/IEEE39_RE.out"

 42 diagonal and 70 off-diagonal elements

 No power flow data changed for load "1" at bus 12 [LOAD12      138.00]

 No power flow data changed for load "1" at bus 7 [LOAD7       345.00]

 No power flow data changed for load "1" at bus 8 [LOAD8       345.00]

 No power flow data changed for load "1" at bus 23 [LOAD23      345.00]

 No power flow data changed for load "1" at bus 16 [LOAD16      345.00]

 No power flow data changed for load "1" at bus 18 [LOAD18      345.00]

 No power flow data changed for load "1" at bus 26 [LOAD26      345.00]

 Power flow data changed for load "1" at bus 29 [LOAD29      345.00]:
 X--ORIGINAL--X  X-NEW VALUE--X  DATA ITEM
   -158.841        -142.447      PL

 Channel output file is "./Cases/IEEE39_RE.out"

 42 diagonal and 70 off-diagonal elements

 No power flow data changed for load "1" at bus 12 [LOAD12      138.00]

 No power flow data changed for load "1" at bus 7 [LOAD7       345.00]

 No power flow data changed for load "1" at bus 8 [LOAD8       345.00]

 No power flow data changed for load "1" at bus 23 [LOAD23      345.00]

 No power flow data changed for load "1" at bus 16 [LOAD16      345.00]

 No power flow data changed for load "1" at bus 18 [LOAD18      345.00]

 No power flow data changed for load "1" at bus 26 [LOAD26      345.00]

 Power flow data changed for load "1" at bus 29 [LOAD29      345.00]:
 X--ORIGINAL--X  X-NEW VALUE--X  DATA ITEM
   -142.447        -127.617      PL

 Channel output file is "./Cases/IEEE39_RE.out"

 42 diagonal and 70 off-diagonal elements
 LTC DELAY TIMER STARTED AT                25 LOAD25       345.00 1  V= 1.0201 AT TIME=  28.810
 LTC DELAY TIMER STARTED AT                27 LOAD27       345.00 1  V= 1.0200 AT TIME=  28.814

 No power flow data changed for load "1" at bus 12 [LOAD12      138.00]

 No power flow data changed for load "1" at bus 7 [LOAD7       345.00]

 No power flow data changed for load "1" at bus 8 [LOAD8       345.00]

 No power flow data changed for load "1" at bus 23 [LOAD23      345.00]

 No power flow data changed for load "1" at bus 16 [LOAD16      345.00]

 No power flow data changed for load "1" at bus 18 [LOAD18      345.00]

 No power flow data changed for load "1" at bus 26 [LOAD26      345.00]

 Power flow data changed for load "1" at bus 29 [LOAD29      345.00]:
 X--ORIGINAL--X  X-NEW VALUE--X  DATA ITEM
   -127.617        -115.720      PL

 Channel output file is "./Cases/IEEE39_RE.out"

 42 diagonal and 70 off-diagonal elements
 LTC DELAY TIMER STARTED AT                28 LOAD28       345.00 1  V= 1.0200 AT TIME=  28.902

 No power flow data changed for load "1" at bus 12 [LOAD12      138.00]

 No power flow data changed for load "1" at bus 7 [LOAD7       345.00]

 No power flow data changed for load "1" at bus 8 [LOAD8       345.00]

 No power flow data changed for load "1" at bus 23 [LOAD23      345.00]

 No power flow data changed for load "1" at bus 16 [LOAD16      345.00]

 No power flow data changed for load "1" at bus 18 [LOAD18      345.00]

 No power flow data changed for load "1" at bus 26 [LOAD26      345.00]

 Power flow data changed for load "1" at bus 29 [LOAD29      345.00]:
 X--ORIGINAL--X  X-NEW VALUE--X  DATA ITEM
   -115.720        -107.135      PL

 Channel output file is "./Cases/IEEE39_RE.out"

 42 diagonal and 70 off-diagonal elements

 No power flow data changed for load "1" at bus 12 [LOAD12      138.00]

 No power flow data changed for load "1" at bus 7 [LOAD7       345.00]

 No power flow data changed for load "1" at bus 8 [LOAD8       345.00]

 No power flow data changed for load "1" at bus 23 [LOAD23      345.00]

 No power flow data changed for load "1" at bus 16 [LOAD16      345.00]

 No power flow data changed for load "1" at bus 18 [LOAD18      345.00]

 No power flow data changed for load "1" at bus 26 [LOAD26      345.00]

 Power flow data changed for load "1" at bus 29 [LOAD29      345.00]:
 X--ORIGINAL--X  X-NEW VALUE--X  DATA ITEM
   -107.135        -101.467      PL

 Channel output file is "./Cases/IEEE39_RE.out"

 42 diagonal and 70 off-diagonal elements

 No power flow data changed for load "1" at bus 12 [LOAD12      138.00]

 No power flow data changed for load "1" at bus 7 [LOAD7       345.00]

 No power flow data changed for load "1" at bus 8 [LOAD8       345.00]

 No power flow data changed for load "1" at bus 23 [LOAD23      345.00]

 No power flow data changed for load "1" at bus 16 [LOAD16      345.00]

 No power flow data changed for load "1" at bus 18 [LOAD18      345.00]

 No power flow data changed for load "1" at bus 26 [LOAD26      345.00]

 Power flow data changed for load "1" at bus 29 [LOAD29      345.00]:
 X--ORIGINAL--X  X-NEW VALUE--X  DATA ITEM
   -101.467        -97.9508      PL

 Channel output file is "./Cases/IEEE39_RE.out"

 42 diagonal and 70 off-diagonal elements

 No power flow data changed for load "1" at bus 12 [LOAD12      138.00]

 No power flow data changed for load "1" at bus 7 [LOAD7       345.00]

 No power flow data changed for load "1" at bus 8 [LOAD8       345.00]

 No power flow data changed for load "1" at bus 23 [LOAD23      345.00]

 No power flow data changed for load "1" at bus 16 [LOAD16      345.00]

 No power flow data changed for load "1" at bus 18 [LOAD18      345.00]

 No power flow data changed for load "1" at bus 26 [LOAD26      345.00]

 Power flow data changed for load "1" at bus 29 [LOAD29      345.00]:
 X--ORIGINAL--X  X-NEW VALUE--X  DATA ITEM
   -97.9508        -95.7754      PL

 Channel output file is "./Cases/IEEE39_RE.out"

 42 diagonal and 70 off-diagonal elements

 No power flow data changed for load "1" at bus 12 [LOAD12      138.00]

 No power flow data changed for load "1" at bus 7 [LOAD7       345.00]

 No power flow data changed for load "1" at bus 8 [LOAD8       345.00]

 No power flow data changed for load "1" at bus 23 [LOAD23      345.00]

 No power flow data changed for load "1" at bus 16 [LOAD16      345.00]

 No power flow data changed for load "1" at bus 18 [LOAD18      345.00]

 No power flow data changed for load "1" at bus 26 [LOAD26      345.00]

 Power flow data changed for load "1" at bus 29 [LOAD29      345.00]:
 X--ORIGINAL--X  X-NEW VALUE--X  DATA ITEM
   -95.7754        -94.2153      PL

 Channel output file is "./Cases/IEEE39_RE.out"

 42 diagonal and 70 off-diagonal elements

 No power flow data changed for load "1" at bus 12 [LOAD12      138.00]

 No power flow data changed for load "1" at bus 7 [LOAD7       345.00]

 No power flow data changed for load "1" at bus 8 [LOAD8       345.00]

 No power flow data changed for load "1" at bus 23 [LOAD23      345.00]

 No power flow data changed for load "1" at bus 16 [LOAD16      345.00]

 No power flow data changed for load "1" at bus 18 [LOAD18      345.00]

 No power flow data changed for load "1" at bus 26 [LOAD26      345.00]

 Power flow data changed for load "1" at bus 29 [LOAD29      345.00]:
 X--ORIGINAL--X  X-NEW VALUE--X  DATA ITEM
   -94.2153        -92.5749      PL

 Channel output file is "./Cases/IEEE39_RE.out"

 42 diagonal and 70 off-diagonal elements

 No power flow data changed for load "1" at bus 12 [LOAD12      138.00]

 No power flow data changed for load "1" at bus 7 [LOAD7       345.00]

 No power flow data changed for load "1" at bus 8 [LOAD8       345.00]

 No power flow data changed for load "1" at bus 23 [LOAD23      345.00]

 No power flow data changed for load "1" at bus 16 [LOAD16      345.00]

 No power flow data changed for load "1" at bus 18 [LOAD18      345.00]

 No power flow data changed for load "1" at bus 26 [LOAD26      345.00]

 Power flow data changed for load "1" at bus 29 [LOAD29      345.00]:
 X--ORIGINAL--X  X-NEW VALUE--X  DATA ITEM
   -92.5749        -90.0280      PL

 Channel output file is "./Cases/IEEE39_RE.out"

 42 diagonal and 70 off-diagonal elements
     LTC DELAY TIMER RESET

 No power flow data changed for load "1" at bus 12 [LOAD12      138.00]

 No power flow data changed for load "1" at bus 7 [LOAD7       345.00]

 No power flow data changed for load "1" at bus 8 [LOAD8       345.00]

 No power flow data changed for load "1" at bus 23 [LOAD23      345.00]

 No power flow data changed for load "1" at bus 16 [LOAD16      345.00]

 No power flow data changed for load "1" at bus 18 [LOAD18      345.00]

 No power flow data changed for load "1" at bus 26 [LOAD26      345.00]

 Power flow data changed for load "1" at bus 29 [LOAD29      345.00]:
 X--ORIGINAL--X  X-NEW VALUE--X  DATA ITEM
   -90.0280        -85.4841      PL

 Channel output file is "./Cases/IEEE39_RE.out"

 42 diagonal and 70 off-diagonal elements

 No power flow data changed for load "1" at bus 12 [LOAD12      138.00]

 No power flow data changed for load "1" at bus 7 [LOAD7       345.00]

 No power flow data changed for load "1" at bus 8 [LOAD8       345.00]

 No power flow data changed for load "1" at bus 23 [LOAD23      345.00]

 No power flow data changed for load "1" at bus 16 [LOAD16      345.00]

 No power flow data changed for load "1" at bus 18 [LOAD18      345.00]

 No power flow data changed for load "1" at bus 26 [LOAD26      345.00]

 Power flow data changed for load "1" at bus 29 [LOAD29      345.00]:
 X--ORIGINAL--X  X-NEW VALUE--X  DATA ITEM
   -85.4841        -77.6463      PL

 Channel output file is "./Cases/IEEE39_RE.out"

 42 diagonal and 70 off-diagonal elements
     LTC DELAY TIMER RESET
     LTC DELAY TIMER RESET

 No power flow data changed for load "1" at bus 12 [LOAD12      138.00]

 No power flow data changed for load "1" at bus 7 [LOAD7       345.00]

 No power flow data changed for load "1" at bus 8 [LOAD8       345.00]

 No power flow data changed for load "1" at bus 23 [LOAD23      345.00]

 No power flow data changed for load "1" at bus 16 [LOAD16      345.00]

 No power flow data changed for load "1" at bus 18 [LOAD18      345.00]

 No power flow data changed for load "1" at bus 26 [LOAD26      345.00]

 Power flow data changed for load "1" at bus 29 [LOAD29      345.00]:
 X--ORIGINAL--X  X-NEW VALUE--X  DATA ITEM
   -77.6463        -65.2954      PL

 Channel output file is "./Cases/IEEE39_RE.out"

 42 diagonal and 70 off-diagonal elements
     LTC DELAY TIMER RESET
