
 PSS(R)E Version 35
 Copyright (c) 1976-2026
 Siemens Industry, Inc.,
 Power Technologies International                            (PTI)
 This program is a confidential  unpublished  work  created  and  first
 licensed in 1976.  It is a trade secret which is the property of  PTI.
 All use,  disclosure,  and/or reproduction not specifically authorized
 by  PTI  is prohibited.   This  program is protected  under  copyright
 laws  of  non-U.S.  countries  and  by  application  of  international
 treaties.  All  Rights  Reserved  Under  The  Copyright  Laws.


           SIEMENS POWER TECHNOLOGIES INTERNATIONAL

      20000 BUS POWER SYSTEM SIMULATOR--PSS(R)E-35.5.0

             INITIATED ON SAT, MAR 28 2026  15:24

 NEW ENGLAND TEST SYSTEM, 39 BUSES, 9 GENERATORS, 2 AREAS, 4
 UPDATED BY JOSE CONTO


 Power flow solution parameters changed:
 X--ORIGINAL--X  X-NEW VALUE--X  DATA ITEM
         20             100      ITMXN

 6 loads converted during this step

 13 loads converted during this step

 19 of 19 loads converted

  ITER       DELTAP      BUS         DELTAQ      BUS        DELTA/V/      BUS       DELTAANG      BUS
   0.0       0.0001(      6     )    0.0000(      8     )
                                                             0.00000(            )   0.00000(     31     )
   0.5       0.0000(     31     )    0.0000(     31     )
                                                             0.00000(     31     )   0.00000(            )
   1.0       0.0000(      6     )    0.0000(     31     )


 Reached tolerance in 1 iterations

 Largest mismatch:     -0.00 MW     -0.00 Mvar      0.00 MVA at bus 6 [BUS6        345.00]
 System total absolute mismatch:                    0.00 MVA

 SWING BUS SUMMARY:
   BUS#-SCT X-- NAME --X BASKV      PGEN     PMAX    PMIN      QGEN     QMAX    QMIN
     39     GEN39       345.00     708.5   1090.0     0.0     115.9    574.8  -173.3

 Generator conversion completed using ZSORCE
 Diagonals = 42   Off-diagonals = 70   Maximum size = 98

 42 diagonal and 70 off-diagonal elements

 ITER DELTAV/TOL X----------- AT BUS -----------X  REAL(DELTAV)  IMAG(DELTAV)
    1     0.015      31     [GEN31       34.500]    0.1491E-06    0.6691E-08

 Reached tolerance in 1 iterations

 Largest mismatch:      0.01 MW      0.03 Mvar      0.03 MVA at bus 39 [GEN39       345.00]
 System total absolute mismatch:                    0.06 MVA

 ITER DELTAV/TOL X----------- AT BUS -----------X  REAL(DELTAV)  IMAG(DELTAV)
    1     0.001       8     [LOAD8       345.00]    0.5288E-08   -0.5221E-08

 Reached tolerance in 1 iterations

 Largest mismatch:      0.01 MW      0.03 Mvar      0.03 MVA at bus 39 [GEN39       345.00]
 System total absolute mismatch:                    0.06 MVA


 Model "REGCAU1" at bus 40     [RE40_2      345.00] converted to Model "REGCA1"

 Model "REECAU1" at bus 40     [RE40_2      345.00] converted to Model "REECA1"

 Model "REPCAU1" at bus 40     [RE40_2      345.00] converted to Model "REPCA1"

 Model "REGCAU1" at bus 41     [RE41_29     345.00] converted to Model "REGCA1"

 Model "REECAU1" at bus 41     [RE41_29     345.00] converted to Model "REECA1"

 Model "REPCAU1" at bus 41     [RE41_29     345.00] converted to Model "REPCA1"

 Model "REGCAU1" at bus 42     [RE42_39     345.00] converted to Model "REGCA1"

 Model "REECAU1" at bus 42     [RE42_39     345.00] converted to Model "REECA1"

 Model "REPCAU1" at bus 42     [RE42_39     345.00] converted to Model "REPCA1"

 Model "GENTPJU1" at bus 30     [GEN30       34.500] converted to Model "GENTPJ1"

 Model "GENTPJU1" at bus 31     [GEN31       34.500] converted to Model "GENTPJ1"

 Model "GENTPJU1" at bus 32     [GEN32       21.000] converted to Model "GENTPJ1"

 Model "GENTPJU1" at bus 33     [GEN33       21.000] converted to Model "GENTPJ1"

 Model "GENTPJU1" at bus 34     [GEN34       15.500] converted to Model "GENTPJ1"

 Model "GENTPJU1" at bus 35     [GEN35       15.500] converted to Model "GENTPJ1"

 Model "GENTPJU1" at bus 36     [GEN36       12.500] converted to Model "GENTPJ1"

 Model "GENTPJU1" at bus 37     [GEN37       12.500] converted to Model "GENTPJ1"

 Model "GENTPJU1" at bus 38     [GEN38       34.500] converted to Model "GENTPJ1"

 Model "GENTPJU1" at bus 39     [GEN39       345.00] converted to Model "GENTPJ1"
 Out of file data--switch to terminal input mode

 Generator models use:
  CONS         1-    160
  STATES       1-     60
  VARS         1-     10

 Stabilizer models use:
  CONS       161-    330
  STATES      61-    220
  VARS        11-     50
  ICONS        1-     60

 Excitation System models use:
  CONS       331-    490
  STATES     221-    270
  VARS        51-     60

 Turbine Governor models use:
  CONS       491-    600
  STATES     271-    320
  VARS        61-     70

 Renewable Generator models use:
  CONS       601-    642
  STATES     321-    329
  VARS        71-     82
  ICONS       61-     63

 Renewable Electrical models use:
  CONS       643-    777
  STATES     330-    347
  VARS        83-    109
  ICONS       64-     81

 Renewable Auxiliary models use:
  CONS       778-    858
  STATES     348-    368
  VARS       110-    136
  ICONS       82-    102


 SUMMARY OF MODELS READ:

 GENS:  GENTPJ1
          10

 STABS: PSS2A
          10

 EXSYS: IEEEX1
          10

 GOVS:  IEESGO
          10

 REGEN: REGCA1
           3

 REELC: REECA1
           3

 REPLN: REPCA1
           3

 NEXT AVAILABLE ADDRESSES ARE:
     CON   STATE     VAR    ICON
     859     369     137     103

 Only PSSE supplied models in case. Compilation is not required

 Out of file data--switch to terminal input mode

 Shared Load Characteristic models use:
  CONS       859-   2055
  ICONS      103-    120

 Unshared Load models use:
  STATES     369-    611
  VARS       137-   1450
  ICONS      121-    552


 SUMMARY OF MODELS READ:

 USER:  USRLOD
           9

 NEXT AVAILABLE ADDRESSES ARE:
     CON   STATE     VAR    ICON
    2056     612    1451     553

 CONEC and CONET (if present) are unchanged. Compile CONEC and CONET (if present) and
 Compile models not supplied by PSSE and create user dll

 12 Output channels have been added


 Next available addresses are:
   CHANNEL    VAR    ICON
       13    1463     559

 6 Output channels have been added


 Next available addresses are:
   CHANNEL    VAR    ICON
       19    1463     559

 6 Output channels have been added


 Next available addresses are:
   CHANNEL    VAR    ICON
       25    1463     559

 CHANNEL   25 WITH IDENTIFIER "BUS3 UD" ADDED

 CHANNEL   26 WITH IDENTIFIER "BUS3 UQ" ADDED

 CHANNEL   27 WITH IDENTIFIER "BUS3 MA P" ADDED

 CHANNEL   28 WITH IDENTIFIER "BUS3 MA Q" ADDED

 CHANNEL   29 WITH IDENTIFIER "BUS3 MA EQ1" ADDED

 CHANNEL   30 WITH IDENTIFIER "BUS3 MA ED1" ADDED

 CHANNEL   31 WITH IDENTIFIER "BUS3 MA SPEED DEVIATION" ADDED

 CHANNEL   32 WITH IDENTIFIER "BUS4 UD" ADDED

 CHANNEL   33 WITH IDENTIFIER "BUS4 UQ" ADDED

 CHANNEL   34 WITH IDENTIFIER "BUS4 MA P" ADDED

 CHANNEL   35 WITH IDENTIFIER "BUS4 MA Q" ADDED

 CHANNEL   36 WITH IDENTIFIER "BUS4 MA EQ1" ADDED

 CHANNEL   37 WITH IDENTIFIER "BUS4 MA ED1" ADDED

 CHANNEL   38 WITH IDENTIFIER "BUS4 MA SPEED DEVIATION" ADDED

 CHANNEL   39 WITH IDENTIFIER "BUS15 UD" ADDED

 CHANNEL   40 WITH IDENTIFIER "BUS15 UQ" ADDED

 CHANNEL   41 WITH IDENTIFIER "BUS15 MA P" ADDED

 CHANNEL   42 WITH IDENTIFIER "BUS15 MA Q" ADDED

 CHANNEL   43 WITH IDENTIFIER "BUS15 MA EQ1" ADDED

 CHANNEL   44 WITH IDENTIFIER "BUS15 MA ED1" ADDED

 CHANNEL   45 WITH IDENTIFIER "BUS15 MA SPEED DEVIATION" ADDED

 CHANNEL   46 WITH IDENTIFIER "BUS20 UD" ADDED

 CHANNEL   47 WITH IDENTIFIER "BUS20 UQ" ADDED

 CHANNEL   48 WITH IDENTIFIER "BUS20 MA P" ADDED

 CHANNEL   49 WITH IDENTIFIER "BUS20 MA Q" ADDED

 CHANNEL   50 WITH IDENTIFIER "BUS20 MA EQ1" ADDED

 CHANNEL   51 WITH IDENTIFIER "BUS20 MA ED1" ADDED

 CHANNEL   52 WITH IDENTIFIER "BUS20 MA SPEED DEVIATION" ADDED

 CHANNEL   53 WITH IDENTIFIER "BUS24 UD" ADDED

 CHANNEL   54 WITH IDENTIFIER "BUS24 UQ" ADDED

 CHANNEL   55 WITH IDENTIFIER "BUS24 MA P" ADDED

 CHANNEL   56 WITH IDENTIFIER "BUS24 MA Q" ADDED

 CHANNEL   57 WITH IDENTIFIER "BUS24 MA EQ1" ADDED

 CHANNEL   58 WITH IDENTIFIER "BUS24 MA ED1" ADDED

 CHANNEL   59 WITH IDENTIFIER "BUS24 MA SPEED DEVIATION" ADDED

 42 diagonal and 70 off-diagonal elements

 Models have removed constant admittance load and/or machines--REFACTORIZING

 42 diagonal and 70 off-diagonal elements

 Model REPCA1 Bus 40 [RE40_2      345.00] Machine "1 " :
 Branch not defined in ICONs M+1 through M+3: Model will use machine power instead

 Model REPCA1 Bus 41 [RE41_29     345.00] Machine "1 " :
 Branch not defined in ICONs M+1 through M+3: Model will use machine power instead

 Model REPCA1 Bus 42 [RE42_39     345.00] Machine "1 " :
 Branch not defined in ICONs M+1 through M+3: Model will use machine power instead

     PTI INTERACTIVE POWER SYSTEM SIMULATOR--PSS(R)E     SAT, MAR 28 2026  15:24
 NEW ENGLAND TEST SYSTEM, 39 BUSES, 9 GENERATORS, 2 AREAS, 4
 UPDATED BY JOSE CONTO

 INITIAL CONDITION LOAD FLOW USED 1 ITERATIONS

 ----------------------------- MACHINE INITIAL CONDITIONS -----------------------------
   BUS#-SCT X-- NAME --X BASKV ID  ETERM   EFD    POWER    VARS   P.F.  ANGLE   ID     IQ
     30     GEN30       34.500 1  1.0268 2.7988  250.00  153.18 0.8527  20.74 0.9477 0.4243
     31     GEN31       34.500 1  1.0015 2.6667  572.93  429.80 0.7999  12.21 0.7725 0.3675
     32     GEN32       21.000 1  0.9831 1.7067  450.00  121.03 0.9657  19.16 0.4270 0.3651
     33     GEN33       21.000 1  0.9972 1.7346  632.00  176.55 0.9631  21.62 0.4236 0.3665
     34     GEN34       15.500 1  1.0123 1.7352  508.00  198.31 0.9315  14.96 0.3802 0.3227
     35     GEN35       15.500 1  1.0493 1.9708  450.00  260.05 0.8658   7.49 0.3538 0.2880
     36     GEN36       12.500 1  1.0635 1.8249  560.00  137.20 0.9713  21.31 0.3661 0.3816
     37     GEN37       12.500 1  1.0278 1.7353  540.00   96.30 0.9845  25.24 0.3818 0.3960
     38     GEN38       34.500 1  1.0265 1.5151  629.99  145.13 0.9745  18.75 0.2311 0.2940
     39     GEN39       345.00 1  1.0300 1.7565  708.52  115.91 0.9869  24.50 0.4092 0.4129
     40     RE40_2      345.00 1  1.0200 0.0000  200.00   -2.28 0.9999 -10.68-0.0112 0.9804
     41     RE41_29     345.00 1  1.0150 0.0000  200.00  -19.03 0.9955  -6.36-0.0937 0.9852
     42     RE42_39     345.00 1  1.0250 0.0000  200.00   -0.76 1.0000  -5.52-0.0037 0.9756

 INITIAL CONDITIONS CHECK O.K.

 Channel output file is "./Cases/IEEE39_RE.out"

 No power flow data changed for load "1" at bus 12 [LOAD12      138.00]

 No power flow data changed for load "1" at bus 7 [LOAD7       345.00]

 No power flow data changed for load "1" at bus 8 [LOAD8       345.00]

 No power flow data changed for load "1" at bus 23 [LOAD23      345.00]

 No power flow data changed for load "1" at bus 16 [LOAD16      345.00]

 No power flow data changed for load "1" at bus 18 [LOAD18      345.00]

 No power flow data changed for load "1" at bus 26 [LOAD26      345.00]

 Power flow data changed for load "1" at bus 29 [LOAD29      345.00]:
 X--ORIGINAL--X  X-NEW VALUE--X  DATA ITEM
    0.00000       -0.591597E-03  PL

 Channel output file is "./Cases/IEEE39_RE.out"

 42 diagonal and 70 off-diagonal elements

 No power flow data changed for load "1" at bus 12 [LOAD12      138.00]

 No power flow data changed for load "1" at bus 7 [LOAD7       345.00]

 No power flow data changed for load "1" at bus 8 [LOAD8       345.00]

 No power flow data changed for load "1" at bus 23 [LOAD23      345.00]

 No power flow data changed for load "1" at bus 16 [LOAD16      345.00]

 No power flow data changed for load "1" at bus 18 [LOAD18      345.00]

 No power flow data changed for load "1" at bus 26 [LOAD26      345.00]

 Power flow data changed for load "1" at bus 29 [LOAD29      345.00]:
 X--ORIGINAL--X  X-NEW VALUE--X  DATA ITEM
  -0.591597E-03    -5.93844      PL

 Channel output file is "./Cases/IEEE39_RE.out"

 42 diagonal and 70 off-diagonal elements

 No power flow data changed for load "1" at bus 12 [LOAD12      138.00]

 No power flow data changed for load "1" at bus 7 [LOAD7       345.00]

 No power flow data changed for load "1" at bus 8 [LOAD8       345.00]

 No power flow data changed for load "1" at bus 23 [LOAD23      345.00]

 No power flow data changed for load "1" at bus 16 [LOAD16      345.00]

 No power flow data changed for load "1" at bus 18 [LOAD18      345.00]

 No power flow data changed for load "1" at bus 26 [LOAD26      345.00]

 Power flow data changed for load "1" at bus 29 [LOAD29      345.00]:
 X--ORIGINAL--X  X-NEW VALUE--X  DATA ITEM
   -5.93844        -1.43829      PL

 Channel output file is "./Cases/IEEE39_RE.out"

 42 diagonal and 70 off-diagonal elements

 No power flow data changed for load "1" at bus 12 [LOAD12      138.00]

 No power flow data changed for load "1" at bus 7 [LOAD7       345.00]

 No power flow data changed for load "1" at bus 8 [LOAD8       345.00]

 No power flow data changed for load "1" at bus 23 [LOAD23      345.00]

 No power flow data changed for load "1" at bus 16 [LOAD16      345.00]

 No power flow data changed for load "1" at bus 18 [LOAD18      345.00]

 No power flow data changed for load "1" at bus 26 [LOAD26      345.00]

 Power flow data changed for load "1" at bus 29 [LOAD29      345.00]:
 X--ORIGINAL--X  X-NEW VALUE--X  DATA ITEM
   -1.43829         11.1111      PL

 Channel output file is "./Cases/IEEE39_RE.out"

 42 diagonal and 70 off-diagonal elements

 No power flow data changed for load "1" at bus 12 [LOAD12      138.00]

 No power flow data changed for load "1" at bus 7 [LOAD7       345.00]

 No power flow data changed for load "1" at bus 8 [LOAD8       345.00]

 No power flow data changed for load "1" at bus 23 [LOAD23      345.00]

 No power flow data changed for load "1" at bus 16 [LOAD16      345.00]

 No power flow data changed for load "1" at bus 18 [LOAD18      345.00]

 No power flow data changed for load "1" at bus 26 [LOAD26      345.00]

 Power flow data changed for load "1" at bus 29 [LOAD29      345.00]:
 X--ORIGINAL--X  X-NEW VALUE--X  DATA ITEM
    11.1111         28.5347      PL

 Channel output file is "./Cases/IEEE39_RE.out"

 42 diagonal and 70 off-diagonal elements

 No power flow data changed for load "1" at bus 12 [LOAD12      138.00]

 No power flow data changed for load "1" at bus 7 [LOAD7       345.00]

 No power flow data changed for load "1" at bus 8 [LOAD8       345.00]

 No power flow data changed for load "1" at bus 23 [LOAD23      345.00]

 No power flow data changed for load "1" at bus 16 [LOAD16      345.00]

 No power flow data changed for load "1" at bus 18 [LOAD18      345.00]

 No power flow data changed for load "1" at bus 26 [LOAD26      345.00]

 Power flow data changed for load "1" at bus 29 [LOAD29      345.00]:
 X--ORIGINAL--X  X-NEW VALUE--X  DATA ITEM
    28.5347         47.3187      PL

 Channel output file is "./Cases/IEEE39_RE.out"

 42 diagonal and 70 off-diagonal elements

 No power flow data changed for load "1" at bus 12 [LOAD12      138.00]

 No power flow data changed for load "1" at bus 7 [LOAD7       345.00]

 No power flow data changed for load "1" at bus 8 [LOAD8       345.00]

 No power flow data changed for load "1" at bus 23 [LOAD23      345.00]

 No power flow data changed for load "1" at bus 16 [LOAD16      345.00]

 No power flow data changed for load "1" at bus 18 [LOAD18      345.00]

 No power flow data changed for load "1" at bus 26 [LOAD26      345.00]

 Power flow data changed for load "1" at bus 29 [LOAD29      345.00]:
 X--ORIGINAL--X  X-NEW VALUE--X  DATA ITEM
    47.3187         64.0750      PL

 Channel output file is "./Cases/IEEE39_RE.out"

 42 diagonal and 70 off-diagonal elements

 No power flow data changed for load "1" at bus 12 [LOAD12      138.00]

 No power flow data changed for load "1" at bus 7 [LOAD7       345.00]

 No power flow data changed for load "1" at bus 8 [LOAD8       345.00]

 No power flow data changed for load "1" at bus 23 [LOAD23      345.00]

 No power flow data changed for load "1" at bus 16 [LOAD16      345.00]

 No power flow data changed for load "1" at bus 18 [LOAD18      345.00]

 No power flow data changed for load "1" at bus 26 [LOAD26      345.00]

 Power flow data changed for load "1" at bus 29 [LOAD29      345.00]:
 X--ORIGINAL--X  X-NEW VALUE--X  DATA ITEM
    64.0750         75.9745      PL

 Channel output file is "./Cases/IEEE39_RE.out"

 42 diagonal and 70 off-diagonal elements

 No power flow data changed for load "1" at bus 12 [LOAD12      138.00]

 No power flow data changed for load "1" at bus 7 [LOAD7       345.00]

 No power flow data changed for load "1" at bus 8 [LOAD8       345.00]

 No power flow data changed for load "1" at bus 23 [LOAD23      345.00]

 No power flow data changed for load "1" at bus 16 [LOAD16      345.00]

 No power flow data changed for load "1" at bus 18 [LOAD18      345.00]

 No power flow data changed for load "1" at bus 26 [LOAD26      345.00]

 Power flow data changed for load "1" at bus 29 [LOAD29      345.00]:
 X--ORIGINAL--X  X-NEW VALUE--X  DATA ITEM
    75.9745         81.0870      PL

 Channel output file is "./Cases/IEEE39_RE.out"

 42 diagonal and 70 off-diagonal elements

 No power flow data changed for load "1" at bus 12 [LOAD12      138.00]

 No power flow data changed for load "1" at bus 7 [LOAD7       345.00]

 No power flow data changed for load "1" at bus 8 [LOAD8       345.00]

 No power flow data changed for load "1" at bus 23 [LOAD23      345.00]

 No power flow data changed for load "1" at bus 16 [LOAD16      345.00]

 No power flow data changed for load "1" at bus 18 [LOAD18      345.00]

 No power flow data changed for load "1" at bus 26 [LOAD26      345.00]

 Power flow data changed for load "1" at bus 29 [LOAD29      345.00]:
 X--ORIGINAL--X  X-NEW VALUE--X  DATA ITEM
    81.0870         78.5624      PL

 Channel output file is "./Cases/IEEE39_RE.out"

 42 diagonal and 70 off-diagonal elements

 No power flow data changed for load "1" at bus 12 [LOAD12      138.00]

 No power flow data changed for load "1" at bus 7 [LOAD7       345.00]

 No power flow data changed for load "1" at bus 8 [LOAD8       345.00]

 No power flow data changed for load "1" at bus 23 [LOAD23      345.00]

 No power flow data changed for load "1" at bus 16 [LOAD16      345.00]

 No power flow data changed for load "1" at bus 18 [LOAD18      345.00]

 No power flow data changed for load "1" at bus 26 [LOAD26      345.00]

 Power flow data changed for load "1" at bus 29 [LOAD29      345.00]:
 X--ORIGINAL--X  X-NEW VALUE--X  DATA ITEM
    78.5624         68.6374      PL

 Channel output file is "./Cases/IEEE39_RE.out"

 42 diagonal and 70 off-diagonal elements

 No power flow data changed for load "1" at bus 12 [LOAD12      138.00]

 No power flow data changed for load "1" at bus 7 [LOAD7       345.00]

 No power flow data changed for load "1" at bus 8 [LOAD8       345.00]

 No power flow data changed for load "1" at bus 23 [LOAD23      345.00]

 No power flow data changed for load "1" at bus 16 [LOAD16      345.00]

 No power flow data changed for load "1" at bus 18 [LOAD18      345.00]

 No power flow data changed for load "1" at bus 26 [LOAD26      345.00]

 Power flow data changed for load "1" at bus 29 [LOAD29      345.00]:
 X--ORIGINAL--X  X-NEW VALUE--X  DATA ITEM
    68.6374         52.4558      PL

 Channel output file is "./Cases/IEEE39_RE.out"

 42 diagonal and 70 off-diagonal elements

 No power flow data changed for load "1" at bus 12 [LOAD12      138.00]

 No power flow data changed for load "1" at bus 7 [LOAD7       345.00]

 No power flow data changed for load "1" at bus 8 [LOAD8       345.00]

 No power flow data changed for load "1" at bus 23 [LOAD23      345.00]

 No power flow data changed for load "1" at bus 16 [LOAD16      345.00]

 No power flow data changed for load "1" at bus 18 [LOAD18      345.00]

 No power flow data changed for load "1" at bus 26 [LOAD26      345.00]

 Power flow data changed for load "1" at bus 29 [LOAD29      345.00]:
 X--ORIGINAL--X  X-NEW VALUE--X  DATA ITEM
    52.4558         31.6907      PL

 Channel output file is "./Cases/IEEE39_RE.out"

 42 diagonal and 70 off-diagonal elements

 No power flow data changed for load "1" at bus 12 [LOAD12      138.00]

 No power flow data changed for load "1" at bus 7 [LOAD7       345.00]

 No power flow data changed for load "1" at bus 8 [LOAD8       345.00]

 No power flow data changed for load "1" at bus 23 [LOAD23      345.00]

 No power flow data changed for load "1" at bus 16 [LOAD16      345.00]

 No power flow data changed for load "1" at bus 18 [LOAD18      345.00]

 No power flow data changed for load "1" at bus 26 [LOAD26      345.00]

 Power flow data changed for load "1" at bus 29 [LOAD29      345.00]:
 X--ORIGINAL--X  X-NEW VALUE--X  DATA ITEM
    31.6907         8.03993      PL

 Channel output file is "./Cases/IEEE39_RE.out"

 42 diagonal and 70 off-diagonal elements

 No power flow data changed for load "1" at bus 12 [LOAD12      138.00]

 No power flow data changed for load "1" at bus 7 [LOAD7       345.00]

 No power flow data changed for load "1" at bus 8 [LOAD8       345.00]

 No power flow data changed for load "1" at bus 23 [LOAD23      345.00]

 No power flow data changed for load "1" at bus 16 [LOAD16      345.00]

 No power flow data changed for load "1" at bus 18 [LOAD18      345.00]

 No power flow data changed for load "1" at bus 26 [LOAD26      345.00]

 Power flow data changed for load "1" at bus 29 [LOAD29      345.00]:
 X--ORIGINAL--X  X-NEW VALUE--X  DATA ITEM
    8.03993        -17.2016      PL

 Channel output file is "./Cases/IEEE39_RE.out"

 42 diagonal and 70 off-diagonal elements

 No power flow data changed for load "1" at bus 12 [LOAD12      138.00]

 No power flow data changed for load "1" at bus 7 [LOAD7       345.00]

 No power flow data changed for load "1" at bus 8 [LOAD8       345.00]

 No power flow data changed for load "1" at bus 23 [LOAD23      345.00]

 No power flow data changed for load "1" at bus 16 [LOAD16      345.00]

 No power flow data changed for load "1" at bus 18 [LOAD18      345.00]

 No power flow data changed for load "1" at bus 26 [LOAD26      345.00]

 Power flow data changed for load "1" at bus 29 [LOAD29      345.00]:
 X--ORIGINAL--X  X-NEW VALUE--X  DATA ITEM
   -17.2016        -43.3130      PL

 Channel output file is "./Cases/IEEE39_RE.out"

 42 diagonal and 70 off-diagonal elements

 No power flow data changed for load "1" at bus 12 [LOAD12      138.00]

 No power flow data changed for load "1" at bus 7 [LOAD7       345.00]

 No power flow data changed for load "1" at bus 8 [LOAD8       345.00]

 No power flow data changed for load "1" at bus 23 [LOAD23      345.00]

 No power flow data changed for load "1" at bus 16 [LOAD16      345.00]

 No power flow data changed for load "1" at bus 18 [LOAD18      345.00]

 No power flow data changed for load "1" at bus 26 [LOAD26      345.00]

 Power flow data changed for load "1" at bus 29 [LOAD29      345.00]:
 X--ORIGINAL--X  X-NEW VALUE--X  DATA ITEM
   -43.3130        -70.0327      PL

 Channel output file is "./Cases/IEEE39_RE.out"

 42 diagonal and 70 off-diagonal elements

 No power flow data changed for load "1" at bus 12 [LOAD12      138.00]

 No power flow data changed for load "1" at bus 7 [LOAD7       345.00]

 No power flow data changed for load "1" at bus 8 [LOAD8       345.00]

 No power flow data changed for load "1" at bus 23 [LOAD23      345.00]

 No power flow data changed for load "1" at bus 16 [LOAD16      345.00]

 No power flow data changed for load "1" at bus 18 [LOAD18      345.00]

 No power flow data changed for load "1" at bus 26 [LOAD26      345.00]

 Power flow data changed for load "1" at bus 29 [LOAD29      345.00]:
 X--ORIGINAL--X  X-NEW VALUE--X  DATA ITEM
   -70.0327        -97.2510      PL

 Channel output file is "./Cases/IEEE39_RE.out"

 42 diagonal and 70 off-diagonal elements

 No power flow data changed for load "1" at bus 12 [LOAD12      138.00]

 No power flow data changed for load "1" at bus 7 [LOAD7       345.00]

 No power flow data changed for load "1" at bus 8 [LOAD8       345.00]

 No power flow data changed for load "1" at bus 23 [LOAD23      345.00]

 No power flow data changed for load "1" at bus 16 [LOAD16      345.00]

 No power flow data changed for load "1" at bus 18 [LOAD18      345.00]

 No power flow data changed for load "1" at bus 26 [LOAD26      345.00]

 Power flow data changed for load "1" at bus 29 [LOAD29      345.00]:
 X--ORIGINAL--X  X-NEW VALUE--X  DATA ITEM
   -97.2510        -124.652      PL

 Channel output file is "./Cases/IEEE39_RE.out"

 42 diagonal and 70 off-diagonal elements

 No power flow data changed for load "1" at bus 12 [LOAD12      138.00]

 No power flow data changed for load "1" at bus 7 [LOAD7       345.00]

 No power flow data changed for load "1" at bus 8 [LOAD8       345.00]

 No power flow data changed for load "1" at bus 23 [LOAD23      345.00]

 No power flow data changed for load "1" at bus 16 [LOAD16      345.00]

 No power flow data changed for load "1" at bus 18 [LOAD18      345.00]

 No power flow data changed for load "1" at bus 26 [LOAD26      345.00]

 Power flow data changed for load "1" at bus 29 [LOAD29      345.00]:
 X--ORIGINAL--X  X-NEW VALUE--X  DATA ITEM
   -124.652        -151.422      PL

 Channel output file is "./Cases/IEEE39_RE.out"

 42 diagonal and 70 off-diagonal elements

 No power flow data changed for load "1" at bus 12 [LOAD12      138.00]

 No power flow data changed for load "1" at bus 7 [LOAD7       345.00]

 No power flow data changed for load "1" at bus 8 [LOAD8       345.00]

 No power flow data changed for load "1" at bus 23 [LOAD23      345.00]

 No power flow data changed for load "1" at bus 16 [LOAD16      345.00]

 No power flow data changed for load "1" at bus 18 [LOAD18      345.00]

 No power flow data changed for load "1" at bus 26 [LOAD26      345.00]

 Power flow data changed for load "1" at bus 29 [LOAD29      345.00]:
 X--ORIGINAL--X  X-NEW VALUE--X  DATA ITEM
   -151.422        -176.098      PL

 Channel output file is "./Cases/IEEE39_RE.out"

 42 diagonal and 70 off-diagonal elements

 No power flow data changed for load "1" at bus 12 [LOAD12      138.00]

 No power flow data changed for load "1" at bus 7 [LOAD7       345.00]

 No power flow data changed for load "1" at bus 8 [LOAD8       345.00]

 No power flow data changed for load "1" at bus 23 [LOAD23      345.00]

 No power flow data changed for load "1" at bus 16 [LOAD16      345.00]

 No power flow data changed for load "1" at bus 18 [LOAD18      345.00]

 No power flow data changed for load "1" at bus 26 [LOAD26      345.00]

 Power flow data changed for load "1" at bus 29 [LOAD29      345.00]:
 X--ORIGINAL--X  X-NEW VALUE--X  DATA ITEM
   -176.098        -196.654      PL

 Channel output file is "./Cases/IEEE39_RE.out"

 42 diagonal and 70 off-diagonal elements

 No power flow data changed for load "1" at bus 12 [LOAD12      138.00]

 No power flow data changed for load "1" at bus 7 [LOAD7       345.00]

 No power flow data changed for load "1" at bus 8 [LOAD8       345.00]

 No power flow data changed for load "1" at bus 23 [LOAD23      345.00]

 No power flow data changed for load "1" at bus 16 [LOAD16      345.00]

 No power flow data changed for load "1" at bus 18 [LOAD18      345.00]

 No power flow data changed for load "1" at bus 26 [LOAD26      345.00]

 Power flow data changed for load "1" at bus 29 [LOAD29      345.00]:
 X--ORIGINAL--X  X-NEW VALUE--X  DATA ITEM
   -196.654        -210.856      PL

 Channel output file is "./Cases/IEEE39_RE.out"

 42 diagonal and 70 off-diagonal elements

 No power flow data changed for load "1" at bus 12 [LOAD12      138.00]

 No power flow data changed for load "1" at bus 7 [LOAD7       345.00]

 No power flow data changed for load "1" at bus 8 [LOAD8       345.00]

 No power flow data changed for load "1" at bus 23 [LOAD23      345.00]

 No power flow data changed for load "1" at bus 16 [LOAD16      345.00]

 No power flow data changed for load "1" at bus 18 [LOAD18      345.00]

 No power flow data changed for load "1" at bus 26 [LOAD26      345.00]

 Power flow data changed for load "1" at bus 29 [LOAD29      345.00]:
 X--ORIGINAL--X  X-NEW VALUE--X  DATA ITEM
   -210.856        -216.788      PL

 Channel output file is "./Cases/IEEE39_RE.out"

 42 diagonal and 70 off-diagonal elements
 LTC DELAY TIMER STARTED AT                20 LOAD20       138.00 1  V= 1.0200 AT TIME=   2.340

 No power flow data changed for load "1" at bus 12 [LOAD12      138.00]

 No power flow data changed for load "1" at bus 7 [LOAD7       345.00]

 No power flow data changed for load "1" at bus 8 [LOAD8       345.00]

 No power flow data changed for load "1" at bus 23 [LOAD23      345.00]

 No power flow data changed for load "1" at bus 16 [LOAD16      345.00]

 No power flow data changed for load "1" at bus 18 [LOAD18      345.00]

 No power flow data changed for load "1" at bus 26 [LOAD26      345.00]

 Power flow data changed for load "1" at bus 29 [LOAD29      345.00]:
 X--ORIGINAL--X  X-NEW VALUE--X  DATA ITEM
   -216.788        -213.277      PL

 Channel output file is "./Cases/IEEE39_RE.out"

 42 diagonal and 70 off-diagonal elements

 No power flow data changed for load "1" at bus 12 [LOAD12      138.00]

 No power flow data changed for load "1" at bus 7 [LOAD7       345.00]

 No power flow data changed for load "1" at bus 8 [LOAD8       345.00]

 No power flow data changed for load "1" at bus 23 [LOAD23      345.00]

 No power flow data changed for load "1" at bus 16 [LOAD16      345.00]

 No power flow data changed for load "1" at bus 18 [LOAD18      345.00]

 No power flow data changed for load "1" at bus 26 [LOAD26      345.00]

 Power flow data changed for load "1" at bus 29 [LOAD29      345.00]:
 X--ORIGINAL--X  X-NEW VALUE--X  DATA ITEM
   -213.277        -200.105      PL

 Channel output file is "./Cases/IEEE39_RE.out"

 42 diagonal and 70 off-diagonal elements

 No power flow data changed for load "1" at bus 12 [LOAD12      138.00]

 No power flow data changed for load "1" at bus 7 [LOAD7       345.00]

 No power flow data changed for load "1" at bus 8 [LOAD8       345.00]

 No power flow data changed for load "1" at bus 23 [LOAD23      345.00]

 No power flow data changed for load "1" at bus 16 [LOAD16      345.00]

 No power flow data changed for load "1" at bus 18 [LOAD18      345.00]

 No power flow data changed for load "1" at bus 26 [LOAD26      345.00]

 Power flow data changed for load "1" at bus 29 [LOAD29      345.00]:
 X--ORIGINAL--X  X-NEW VALUE--X  DATA ITEM
   -200.105        -178.037      PL

 Channel output file is "./Cases/IEEE39_RE.out"

 42 diagonal and 70 off-diagonal elements
 LTC DELAY TIMER STARTED AT                25 LOAD25       345.00 1  V= 1.0200 AT TIME=   2.622
 LTC DELAY TIMER STARTED AT                27 LOAD27       345.00 1  V= 1.0200 AT TIME=   2.674

 No power flow data changed for load "1" at bus 12 [LOAD12      138.00]

 No power flow data changed for load "1" at bus 7 [LOAD7       345.00]

 No power flow data changed for load "1" at bus 8 [LOAD8       345.00]

 No power flow data changed for load "1" at bus 23 [LOAD23      345.00]

 No power flow data changed for load "1" at bus 16 [LOAD16      345.00]

 No power flow data changed for load "1" at bus 18 [LOAD18      345.00]

 No power flow data changed for load "1" at bus 26 [LOAD26      345.00]

 Power flow data changed for load "1" at bus 29 [LOAD29      345.00]:
 X--ORIGINAL--X  X-NEW VALUE--X  DATA ITEM
   -178.037        -148.703      PL

 Channel output file is "./Cases/IEEE39_RE.out"

 42 diagonal and 70 off-diagonal elements
 LTC DELAY TIMER STARTED AT                28 LOAD28       345.00 1  V= 1.0201 AT TIME=   2.772

 No power flow data changed for load "1" at bus 12 [LOAD12      138.00]

 No power flow data changed for load "1" at bus 7 [LOAD7       345.00]

 No power flow data changed for load "1" at bus 8 [LOAD8       345.00]

 No power flow data changed for load "1" at bus 23 [LOAD23      345.00]

 No power flow data changed for load "1" at bus 16 [LOAD16      345.00]

 No power flow data changed for load "1" at bus 18 [LOAD18      345.00]

 No power flow data changed for load "1" at bus 26 [LOAD26      345.00]

 Power flow data changed for load "1" at bus 29 [LOAD29      345.00]:
 X--ORIGINAL--X  X-NEW VALUE--X  DATA ITEM
   -148.703        -114.347      PL

 Channel output file is "./Cases/IEEE39_RE.out"

 42 diagonal and 70 off-diagonal elements

 No power flow data changed for load "1" at bus 12 [LOAD12      138.00]

 No power flow data changed for load "1" at bus 7 [LOAD7       345.00]

 No power flow data changed for load "1" at bus 8 [LOAD8       345.00]

 No power flow data changed for load "1" at bus 23 [LOAD23      345.00]

 No power flow data changed for load "1" at bus 16 [LOAD16      345.00]

 No power flow data changed for load "1" at bus 18 [LOAD18      345.00]

 No power flow data changed for load "1" at bus 26 [LOAD26      345.00]

 Power flow data changed for load "1" at bus 29 [LOAD29      345.00]:
 X--ORIGINAL--X  X-NEW VALUE--X  DATA ITEM
   -114.347        -77.4655      PL

 Channel output file is "./Cases/IEEE39_RE.out"

 42 diagonal and 70 off-diagonal elements

 No power flow data changed for load "1" at bus 12 [LOAD12      138.00]

 No power flow data changed for load "1" at bus 7 [LOAD7       345.00]

 No power flow data changed for load "1" at bus 8 [LOAD8       345.00]

 No power flow data changed for load "1" at bus 23 [LOAD23      345.00]

 No power flow data changed for load "1" at bus 16 [LOAD16      345.00]

 No power flow data changed for load "1" at bus 18 [LOAD18      345.00]

 No power flow data changed for load "1" at bus 26 [LOAD26      345.00]

 Power flow data changed for load "1" at bus 29 [LOAD29      345.00]:
 X--ORIGINAL--X  X-NEW VALUE--X  DATA ITEM
   -77.4655        -40.4603      PL

 Channel output file is "./Cases/IEEE39_RE.out"

 42 diagonal and 70 off-diagonal elements

 No power flow data changed for load "1" at bus 12 [LOAD12      138.00]

 No power flow data changed for load "1" at bus 7 [LOAD7       345.00]

 No power flow data changed for load "1" at bus 8 [LOAD8       345.00]

 No power flow data changed for load "1" at bus 23 [LOAD23      345.00]

 No power flow data changed for load "1" at bus 16 [LOAD16      345.00]

 No power flow data changed for load "1" at bus 18 [LOAD18      345.00]

 No power flow data changed for load "1" at bus 26 [LOAD26      345.00]

 Power flow data changed for load "1" at bus 29 [LOAD29      345.00]:
 X--ORIGINAL--X  X-NEW VALUE--X  DATA ITEM
   -40.4603        -5.39380      PL

 Channel output file is "./Cases/IEEE39_RE.out"

 42 diagonal and 70 off-diagonal elements

 No power flow data changed for load "1" at bus 12 [LOAD12      138.00]

 No power flow data changed for load "1" at bus 7 [LOAD7       345.00]

 No power flow data changed for load "1" at bus 8 [LOAD8       345.00]

 No power flow data changed for load "1" at bus 23 [LOAD23      345.00]

 No power flow data changed for load "1" at bus 16 [LOAD16      345.00]

 No power flow data changed for load "1" at bus 18 [LOAD18      345.00]

 No power flow data changed for load "1" at bus 26 [LOAD26      345.00]

 Power flow data changed for load "1" at bus 29 [LOAD29      345.00]:
 X--ORIGINAL--X  X-NEW VALUE--X  DATA ITEM
   -5.39380         26.1317      PL

 Channel output file is "./Cases/IEEE39_RE.out"

 42 diagonal and 70 off-diagonal elements

 No power flow data changed for load "1" at bus 12 [LOAD12      138.00]

 No power flow data changed for load "1" at bus 7 [LOAD7       345.00]

 No power flow data changed for load "1" at bus 8 [LOAD8       345.00]

 No power flow data changed for load "1" at bus 23 [LOAD23      345.00]

 No power flow data changed for load "1" at bus 16 [LOAD16      345.00]

 No power flow data changed for load "1" at bus 18 [LOAD18      345.00]

 No power flow data changed for load "1" at bus 26 [LOAD26      345.00]

 Power flow data changed for load "1" at bus 29 [LOAD29      345.00]:
 X--ORIGINAL--X  X-NEW VALUE--X  DATA ITEM
    26.1317         53.0078      PL

 Channel output file is "./Cases/IEEE39_RE.out"

 42 diagonal and 70 off-diagonal elements

 No power flow data changed for load "1" at bus 12 [LOAD12      138.00]

 No power flow data changed for load "1" at bus 7 [LOAD7       345.00]

 No power flow data changed for load "1" at bus 8 [LOAD8       345.00]

 No power flow data changed for load "1" at bus 23 [LOAD23      345.00]

 No power flow data changed for load "1" at bus 16 [LOAD16      345.00]

 No power flow data changed for load "1" at bus 18 [LOAD18      345.00]

 No power flow data changed for load "1" at bus 26 [LOAD26      345.00]

 Power flow data changed for load "1" at bus 29 [LOAD29      345.00]:
 X--ORIGINAL--X  X-NEW VALUE--X  DATA ITEM
    53.0078         74.6289      PL

 Channel output file is "./Cases/IEEE39_RE.out"

 42 diagonal and 70 off-diagonal elements
     LTC DELAY TIMER RESET

 No power flow data changed for load "1" at bus 12 [LOAD12      138.00]

 No power flow data changed for load "1" at bus 7 [LOAD7       345.00]

 No power flow data changed for load "1" at bus 8 [LOAD8       345.00]

 No power flow data changed for load "1" at bus 23 [LOAD23      345.00]

 No power flow data changed for load "1" at bus 16 [LOAD16      345.00]

 No power flow data changed for load "1" at bus 18 [LOAD18      345.00]

 No power flow data changed for load "1" at bus 26 [LOAD26      345.00]

 Power flow data changed for load "1" at bus 29 [LOAD29      345.00]:
 X--ORIGINAL--X  X-NEW VALUE--X  DATA ITEM
    74.6289         90.9392      PL

 Channel output file is "./Cases/IEEE39_RE.out"

 42 diagonal and 70 off-diagonal elements

 No power flow data changed for load "1" at bus 12 [LOAD12      138.00]

 No power flow data changed for load "1" at bus 7 [LOAD7       345.00]

 No power flow data changed for load "1" at bus 8 [LOAD8       345.00]

 No power flow data changed for load "1" at bus 23 [LOAD23      345.00]

 No power flow data changed for load "1" at bus 16 [LOAD16      345.00]

 No power flow data changed for load "1" at bus 18 [LOAD18      345.00]

 No power flow data changed for load "1" at bus 26 [LOAD26      345.00]

 Power flow data changed for load "1" at bus 29 [LOAD29      345.00]:
 X--ORIGINAL--X  X-NEW VALUE--X  DATA ITEM
    90.9392         102.501      PL

 Channel output file is "./Cases/IEEE39_RE.out"

 42 diagonal and 70 off-diagonal elements
     LTC DELAY TIMER RESET
     LTC DELAY TIMER RESET

 No power flow data changed for load "1" at bus 12 [LOAD12      138.00]

 No power flow data changed for load "1" at bus 7 [LOAD7       345.00]

 No power flow data changed for load "1" at bus 8 [LOAD8       345.00]

 No power flow data changed for load "1" at bus 23 [LOAD23      345.00]

 No power flow data changed for load "1" at bus 16 [LOAD16      345.00]

 No power flow data changed for load "1" at bus 18 [LOAD18      345.00]

 No power flow data changed for load "1" at bus 26 [LOAD26      345.00]

 Power flow data changed for load "1" at bus 29 [LOAD29      345.00]:
 X--ORIGINAL--X  X-NEW VALUE--X  DATA ITEM
    102.501         110.436      PL

 Channel output file is "./Cases/IEEE39_RE.out"

 42 diagonal and 70 off-diagonal elements
     LTC DELAY TIMER RESET

 No power flow data changed for load "1" at bus 12 [LOAD12      138.00]

 No power flow data changed for load "1" at bus 7 [LOAD7       345.00]

 No power flow data changed for load "1" at bus 8 [LOAD8       345.00]

 No power flow data changed for load "1" at bus 23 [LOAD23      345.00]

 No power flow data changed for load "1" at bus 16 [LOAD16      345.00]

 No power flow data changed for load "1" at bus 18 [LOAD18      345.00]

 No power flow data changed for load "1" at bus 26 [LOAD26      345.00]

 Power flow data changed for load "1" at bus 29 [LOAD29      345.00]:
 X--ORIGINAL--X  X-NEW VALUE--X  DATA ITEM
    110.436         116.145      PL

 Channel output file is "./Cases/IEEE39_RE.out"

 42 diagonal and 70 off-diagonal elements

 No power flow data changed for load "1" at bus 12 [LOAD12      138.00]

 No power flow data changed for load "1" at bus 7 [LOAD7       345.00]

 No power flow data changed for load "1" at bus 8 [LOAD8       345.00]

 No power flow data changed for load "1" at bus 23 [LOAD23      345.00]

 No power flow data changed for load "1" at bus 16 [LOAD16      345.00]

 No power flow data changed for load "1" at bus 18 [LOAD18      345.00]

 No power flow data changed for load "1" at bus 26 [LOAD26      345.00]

 Power flow data changed for load "1" at bus 29 [LOAD29      345.00]:
 X--ORIGINAL--X  X-NEW VALUE--X  DATA ITEM
    116.145         120.948      PL

 Channel output file is "./Cases/IEEE39_RE.out"

 42 diagonal and 70 off-diagonal elements
 LTC DELAY TIMER STARTED AT                28 LOAD28       345.00 1  V= 1.0000 AT TIME=   3.980

 No power flow data changed for load "1" at bus 12 [LOAD12      138.00]

 No power flow data changed for load "1" at bus 7 [LOAD7       345.00]

 No power flow data changed for load "1" at bus 8 [LOAD8       345.00]

 No power flow data changed for load "1" at bus 23 [LOAD23      345.00]

 No power flow data changed for load "1" at bus 16 [LOAD16      345.00]

 No power flow data changed for load "1" at bus 18 [LOAD18      345.00]

 No power flow data changed for load "1" at bus 26 [LOAD26      345.00]

 Power flow data changed for load "1" at bus 29 [LOAD29      345.00]:
 X--ORIGINAL--X  X-NEW VALUE--X  DATA ITEM
    120.948         125.823      PL

 Channel output file is "./Cases/IEEE39_RE.out"

 42 diagonal and 70 off-diagonal elements
 LTC DELAY TIMER STARTED AT                20 LOAD20       138.00 1  V= 0.9999 AT TIME=   4.010
 LTC DELAY TIMER STARTED AT                27 LOAD27       345.00 1  V= 0.9999 AT TIME=   4.056
 LTC DELAY TIMER STARTED AT                25 LOAD25       345.00 1  V= 1.0000 AT TIME=   4.076

 No power flow data changed for load "1" at bus 12 [LOAD12      138.00]

 No power flow data changed for load "1" at bus 7 [LOAD7       345.00]

 No power flow data changed for load "1" at bus 8 [LOAD8       345.00]

 No power flow data changed for load "1" at bus 23 [LOAD23      345.00]

 No power flow data changed for load "1" at bus 16 [LOAD16      345.00]

 No power flow data changed for load "1" at bus 18 [LOAD18      345.00]

 No power flow data changed for load "1" at bus 26 [LOAD26      345.00]

 Power flow data changed for load "1" at bus 29 [LOAD29      345.00]:
 X--ORIGINAL--X  X-NEW VALUE--X  DATA ITEM
    125.823         131.337      PL

 Channel output file is "./Cases/IEEE39_RE.out"

 42 diagonal and 70 off-diagonal elements

 No power flow data changed for load "1" at bus 12 [LOAD12      138.00]

 No power flow data changed for load "1" at bus 7 [LOAD7       345.00]

 No power flow data changed for load "1" at bus 8 [LOAD8       345.00]

 No power flow data changed for load "1" at bus 23 [LOAD23      345.00]

 No power flow data changed for load "1" at bus 16 [LOAD16      345.00]

 No power flow data changed for load "1" at bus 18 [LOAD18      345.00]

 No power flow data changed for load "1" at bus 26 [LOAD26      345.00]

 Power flow data changed for load "1" at bus 29 [LOAD29      345.00]:
 X--ORIGINAL--X  X-NEW VALUE--X  DATA ITEM
    131.337         137.713      PL

 Channel output file is "./Cases/IEEE39_RE.out"

 42 diagonal and 70 off-diagonal elements

 No power flow data changed for load "1" at bus 12 [LOAD12      138.00]

 No power flow data changed for load "1" at bus 7 [LOAD7       345.00]

 No power flow data changed for load "1" at bus 8 [LOAD8       345.00]

 No power flow data changed for load "1" at bus 23 [LOAD23      345.00]

 No power flow data changed for load "1" at bus 16 [LOAD16      345.00]

 No power flow data changed for load "1" at bus 18 [LOAD18      345.00]

 No power flow data changed for load "1" at bus 26 [LOAD26      345.00]

 Power flow data changed for load "1" at bus 29 [LOAD29      345.00]:
 X--ORIGINAL--X  X-NEW VALUE--X  DATA ITEM
    137.713         145.002      PL

 Channel output file is "./Cases/IEEE39_RE.out"

 42 diagonal and 70 off-diagonal elements

 No power flow data changed for load "1" at bus 12 [LOAD12      138.00]

 No power flow data changed for load "1" at bus 7 [LOAD7       345.00]

 No power flow data changed for load "1" at bus 8 [LOAD8       345.00]

 No power flow data changed for load "1" at bus 23 [LOAD23      345.00]

 No power flow data changed for load "1" at bus 16 [LOAD16      345.00]

 No power flow data changed for load "1" at bus 18 [LOAD18      345.00]

 No power flow data changed for load "1" at bus 26 [LOAD26      345.00]

 Power flow data changed for load "1" at bus 29 [LOAD29      345.00]:
 X--ORIGINAL--X  X-NEW VALUE--X  DATA ITEM
    145.002         153.246      PL

 Channel output file is "./Cases/IEEE39_RE.out"

 42 diagonal and 70 off-diagonal elements

 No power flow data changed for load "1" at bus 12 [LOAD12      138.00]

 No power flow data changed for load "1" at bus 7 [LOAD7       345.00]

 No power flow data changed for load "1" at bus 8 [LOAD8       345.00]

 No power flow data changed for load "1" at bus 23 [LOAD23      345.00]

 No power flow data changed for load "1" at bus 16 [LOAD16      345.00]

 No power flow data changed for load "1" at bus 18 [LOAD18      345.00]

 No power flow data changed for load "1" at bus 26 [LOAD26      345.00]

 Power flow data changed for load "1" at bus 29 [LOAD29      345.00]:
 X--ORIGINAL--X  X-NEW VALUE--X  DATA ITEM
    153.246         162.590      PL

 Channel output file is "./Cases/IEEE39_RE.out"

 42 diagonal and 70 off-diagonal elements

 No power flow data changed for load "1" at bus 12 [LOAD12      138.00]

 No power flow data changed for load "1" at bus 7 [LOAD7       345.00]

 No power flow data changed for load "1" at bus 8 [LOAD8       345.00]

 No power flow data changed for load "1" at bus 23 [LOAD23      345.00]

 No power flow data changed for load "1" at bus 16 [LOAD16      345.00]

 No power flow data changed for load "1" at bus 18 [LOAD18      345.00]

 No power flow data changed for load "1" at bus 26 [LOAD26      345.00]

 Power flow data changed for load "1" at bus 29 [LOAD29      345.00]:
 X--ORIGINAL--X  X-NEW VALUE--X  DATA ITEM
    162.590         173.310      PL

 Channel output file is "./Cases/IEEE39_RE.out"

 42 diagonal and 70 off-diagonal elements

 No power flow data changed for load "1" at bus 12 [LOAD12      138.00]

 No power flow data changed for load "1" at bus 7 [LOAD7       345.00]

 No power flow data changed for load "1" at bus 8 [LOAD8       345.00]

 No power flow data changed for load "1" at bus 23 [LOAD23      345.00]

 No power flow data changed for load "1" at bus 16 [LOAD16      345.00]

 No power flow data changed for load "1" at bus 18 [LOAD18      345.00]

 No power flow data changed for load "1" at bus 26 [LOAD26      345.00]

 Power flow data changed for load "1" at bus 29 [LOAD29      345.00]:
 X--ORIGINAL--X  X-NEW VALUE--X  DATA ITEM
    173.310         185.685      PL

 Channel output file is "./Cases/IEEE39_RE.out"

 42 diagonal and 70 off-diagonal elements

 No power flow data changed for load "1" at bus 12 [LOAD12      138.00]

 No power flow data changed for load "1" at bus 7 [LOAD7       345.00]

 No power flow data changed for load "1" at bus 8 [LOAD8       345.00]

 No power flow data changed for load "1" at bus 23 [LOAD23      345.00]

 No power flow data changed for load "1" at bus 16 [LOAD16      345.00]

 No power flow data changed for load "1" at bus 18 [LOAD18      345.00]

 No power flow data changed for load "1" at bus 26 [LOAD26      345.00]

 Power flow data changed for load "1" at bus 29 [LOAD29      345.00]:
 X--ORIGINAL--X  X-NEW VALUE--X  DATA ITEM
    185.685         199.703      PL

 Channel output file is "./Cases/IEEE39_RE.out"

 42 diagonal and 70 off-diagonal elements

 No power flow data changed for load "1" at bus 12 [LOAD12      138.00]

 No power flow data changed for load "1" at bus 7 [LOAD7       345.00]

 No power flow data changed for load "1" at bus 8 [LOAD8       345.00]

 No power flow data changed for load "1" at bus 23 [LOAD23      345.00]

 No power flow data changed for load "1" at bus 16 [LOAD16      345.00]

 No power flow data changed for load "1" at bus 18 [LOAD18      345.00]

 No power flow data changed for load "1" at bus 26 [LOAD26      345.00]

 Power flow data changed for load "1" at bus 29 [LOAD29      345.00]:
 X--ORIGINAL--X  X-NEW VALUE--X  DATA ITEM
    199.703         214.742      PL

 Channel output file is "./Cases/IEEE39_RE.out"

 42 diagonal and 70 off-diagonal elements

 No power flow data changed for load "1" at bus 12 [LOAD12      138.00]

 No power flow data changed for load "1" at bus 7 [LOAD7       345.00]

 No power flow data changed for load "1" at bus 8 [LOAD8       345.00]

 No power flow data changed for load "1" at bus 23 [LOAD23      345.00]

 No power flow data changed for load "1" at bus 16 [LOAD16      345.00]

 No power flow data changed for load "1" at bus 18 [LOAD18      345.00]

 No power flow data changed for load "1" at bus 26 [LOAD26      345.00]

 Power flow data changed for load "1" at bus 29 [LOAD29      345.00]:
 X--ORIGINAL--X  X-NEW VALUE--X  DATA ITEM
    214.742         229.515      PL

 Channel output file is "./Cases/IEEE39_RE.out"

 42 diagonal and 70 off-diagonal elements

 No power flow data changed for load "1" at bus 12 [LOAD12      138.00]

 No power flow data changed for load "1" at bus 7 [LOAD7       345.00]

 No power flow data changed for load "1" at bus 8 [LOAD8       345.00]

 No power flow data changed for load "1" at bus 23 [LOAD23      345.00]

 No power flow data changed for load "1" at bus 16 [LOAD16      345.00]

 No power flow data changed for load "1" at bus 18 [LOAD18      345.00]

 No power flow data changed for load "1" at bus 26 [LOAD26      345.00]

 Power flow data changed for load "1" at bus 29 [LOAD29      345.00]:
 X--ORIGINAL--X  X-NEW VALUE--X  DATA ITEM
    229.515         242.385      PL

 Channel output file is "./Cases/IEEE39_RE.out"

 42 diagonal and 70 off-diagonal elements

 No power flow data changed for load "1" at bus 12 [LOAD12      138.00]

 No power flow data changed for load "1" at bus 7 [LOAD7       345.00]

 No power flow data changed for load "1" at bus 8 [LOAD8       345.00]

 No power flow data changed for load "1" at bus 23 [LOAD23      345.00]

 No power flow data changed for load "1" at bus 16 [LOAD16      345.00]

 No power flow data changed for load "1" at bus 18 [LOAD18      345.00]

 No power flow data changed for load "1" at bus 26 [LOAD26      345.00]

 Power flow data changed for load "1" at bus 29 [LOAD29      345.00]:
 X--ORIGINAL--X  X-NEW VALUE--X  DATA ITEM
    242.385         251.892      PL

 Channel output file is "./Cases/IEEE39_RE.out"

 42 diagonal and 70 off-diagonal elements

 No power flow data changed for load "1" at bus 12 [LOAD12      138.00]

 No power flow data changed for load "1" at bus 7 [LOAD7       345.00]

 No power flow data changed for load "1" at bus 8 [LOAD8       345.00]

 No power flow data changed for load "1" at bus 23 [LOAD23      345.00]

 No power flow data changed for load "1" at bus 16 [LOAD16      345.00]

 No power flow data changed for load "1" at bus 18 [LOAD18      345.00]

 No power flow data changed for load "1" at bus 26 [LOAD26      345.00]

 Power flow data changed for load "1" at bus 29 [LOAD29      345.00]:
 X--ORIGINAL--X  X-NEW VALUE--X  DATA ITEM
    251.892         257.220      PL

 Channel output file is "./Cases/IEEE39_RE.out"

 42 diagonal and 70 off-diagonal elements

 No power flow data changed for load "1" at bus 12 [LOAD12      138.00]

 No power flow data changed for load "1" at bus 7 [LOAD7       345.00]

 No power flow data changed for load "1" at bus 8 [LOAD8       345.00]

 No power flow data changed for load "1" at bus 23 [LOAD23      345.00]

 No power flow data changed for load "1" at bus 16 [LOAD16      345.00]

 No power flow data changed for load "1" at bus 18 [LOAD18      345.00]

 No power flow data changed for load "1" at bus 26 [LOAD26      345.00]

 Power flow data changed for load "1" at bus 29 [LOAD29      345.00]:
 X--ORIGINAL--X  X-NEW VALUE--X  DATA ITEM
    257.220         258.451      PL

 Channel output file is "./Cases/IEEE39_RE.out"

 42 diagonal and 70 off-diagonal elements

 No power flow data changed for load "1" at bus 12 [LOAD12      138.00]

 No power flow data changed for load "1" at bus 7 [LOAD7       345.00]

 No power flow data changed for load "1" at bus 8 [LOAD8       345.00]

 No power flow data changed for load "1" at bus 23 [LOAD23      345.00]

 No power flow data changed for load "1" at bus 16 [LOAD16      345.00]

 No power flow data changed for load "1" at bus 18 [LOAD18      345.00]

 No power flow data changed for load "1" at bus 26 [LOAD26      345.00]

 Power flow data changed for load "1" at bus 29 [LOAD29      345.00]:
 X--ORIGINAL--X  X-NEW VALUE--X  DATA ITEM
    258.451         256.540      PL

 Channel output file is "./Cases/IEEE39_RE.out"

 42 diagonal and 70 off-diagonal elements

 No power flow data changed for load "1" at bus 12 [LOAD12      138.00]

 No power flow data changed for load "1" at bus 7 [LOAD7       345.00]

 No power flow data changed for load "1" at bus 8 [LOAD8       345.00]

 No power flow data changed for load "1" at bus 23 [LOAD23      345.00]

 No power flow data changed for load "1" at bus 16 [LOAD16      345.00]

 No power flow data changed for load "1" at bus 18 [LOAD18      345.00]

 No power flow data changed for load "1" at bus 26 [LOAD26      345.00]

 Power flow data changed for load "1" at bus 29 [LOAD29      345.00]:
 X--ORIGINAL--X  X-NEW VALUE--X  DATA ITEM
    256.540         253.037      PL

 Channel output file is "./Cases/IEEE39_RE.out"

 42 diagonal and 70 off-diagonal elements

 No power flow data changed for load "1" at bus 12 [LOAD12      138.00]

 No power flow data changed for load "1" at bus 7 [LOAD7       345.00]

 No power flow data changed for load "1" at bus 8 [LOAD8       345.00]

 No power flow data changed for load "1" at bus 23 [LOAD23      345.00]

 No power flow data changed for load "1" at bus 16 [LOAD16      345.00]

 No power flow data changed for load "1" at bus 18 [LOAD18      345.00]

 No power flow data changed for load "1" at bus 26 [LOAD26      345.00]

 Power flow data changed for load "1" at bus 29 [LOAD29      345.00]:
 X--ORIGINAL--X  X-NEW VALUE--X  DATA ITEM
    253.037         249.673      PL

 Channel output file is "./Cases/IEEE39_RE.out"

 42 diagonal and 70 off-diagonal elements
     LTC DELAY TIMER RESET

 No power flow data changed for load "1" at bus 12 [LOAD12      138.00]

 No power flow data changed for load "1" at bus 7 [LOAD7       345.00]

 No power flow data changed for load "1" at bus 8 [LOAD8       345.00]

 No power flow data changed for load "1" at bus 23 [LOAD23      345.00]

 No power flow data changed for load "1" at bus 16 [LOAD16      345.00]

 No power flow data changed for load "1" at bus 18 [LOAD18      345.00]

 No power flow data changed for load "1" at bus 26 [LOAD26      345.00]

 Power flow data changed for load "1" at bus 29 [LOAD29      345.00]:
 X--ORIGINAL--X  X-NEW VALUE--X  DATA ITEM
    249.673         247.972      PL

 Channel output file is "./Cases/IEEE39_RE.out"

 42 diagonal and 70 off-diagonal elements
     LTC DELAY TIMER RESET
     LTC DELAY TIMER RESET

 No power flow data changed for load "1" at bus 12 [LOAD12      138.00]

 No power flow data changed for load "1" at bus 7 [LOAD7       345.00]

 No power flow data changed for load "1" at bus 8 [LOAD8       345.00]

 No power flow data changed for load "1" at bus 23 [LOAD23      345.00]

 No power flow data changed for load "1" at bus 16 [LOAD16      345.00]

 No power flow data changed for load "1" at bus 18 [LOAD18      345.00]

 No power flow data changed for load "1" at bus 26 [LOAD26      345.00]

 Power flow data changed for load "1" at bus 29 [LOAD29      345.00]:
 X--ORIGINAL--X  X-NEW VALUE--X  DATA ITEM
    247.972         249.021      PL

 Channel output file is "./Cases/IEEE39_RE.out"

 42 diagonal and 70 off-diagonal elements

 No power flow data changed for load "1" at bus 12 [LOAD12      138.00]

 No power flow data changed for load "1" at bus 7 [LOAD7       345.00]

 No power flow data changed for load "1" at bus 8 [LOAD8       345.00]

 No power flow data changed for load "1" at bus 23 [LOAD23      345.00]

 No power flow data changed for load "1" at bus 16 [LOAD16      345.00]

 No power flow data changed for load "1" at bus 18 [LOAD18      345.00]

 No power flow data changed for load "1" at bus 26 [LOAD26      345.00]

 Power flow data changed for load "1" at bus 29 [LOAD29      345.00]:
 X--ORIGINAL--X  X-NEW VALUE--X  DATA ITEM
    249.021         253.395      PL

 Channel output file is "./Cases/IEEE39_RE.out"

 42 diagonal and 70 off-diagonal elements

 No power flow data changed for load "1" at bus 12 [LOAD12      138.00]

 No power flow data changed for load "1" at bus 7 [LOAD7       345.00]

 No power flow data changed for load "1" at bus 8 [LOAD8       345.00]

 No power flow data changed for load "1" at bus 23 [LOAD23      345.00]

 No power flow data changed for load "1" at bus 16 [LOAD16      345.00]

 No power flow data changed for load "1" at bus 18 [LOAD18      345.00]

 No power flow data changed for load "1" at bus 26 [LOAD26      345.00]

 Power flow data changed for load "1" at bus 29 [LOAD29      345.00]:
 X--ORIGINAL--X  X-NEW VALUE--X  DATA ITEM
    253.395         261.179      PL

 Channel output file is "./Cases/IEEE39_RE.out"

 42 diagonal and 70 off-diagonal elements
     LTC DELAY TIMER RESET

 No power flow data changed for load "1" at bus 12 [LOAD12      138.00]

 No power flow data changed for load "1" at bus 7 [LOAD7       345.00]

 No power flow data changed for load "1" at bus 8 [LOAD8       345.00]

 No power flow data changed for load "1" at bus 23 [LOAD23      345.00]

 No power flow data changed for load "1" at bus 16 [LOAD16      345.00]

 No power flow data changed for load "1" at bus 18 [LOAD18      345.00]

 No power flow data changed for load "1" at bus 26 [LOAD26      345.00]

 Power flow data changed for load "1" at bus 29 [LOAD29      345.00]:
 X--ORIGINAL--X  X-NEW VALUE--X  DATA ITEM
    261.179         271.991      PL

 Channel output file is "./Cases/IEEE39_RE.out"

 42 diagonal and 70 off-diagonal elements

 No power flow data changed for load "1" at bus 12 [LOAD12      138.00]

 No power flow data changed for load "1" at bus 7 [LOAD7       345.00]

 No power flow data changed for load "1" at bus 8 [LOAD8       345.00]

 No power flow data changed for load "1" at bus 23 [LOAD23      345.00]

 No power flow data changed for load "1" at bus 16 [LOAD16      345.00]

 No power flow data changed for load "1" at bus 18 [LOAD18      345.00]

 No power flow data changed for load "1" at bus 26 [LOAD26      345.00]

 Power flow data changed for load "1" at bus 29 [LOAD29      345.00]:
 X--ORIGINAL--X  X-NEW VALUE--X  DATA ITEM
    271.991         284.971      PL

 Channel output file is "./Cases/IEEE39_RE.out"

 42 diagonal and 70 off-diagonal elements
 LTC DELAY TIMER STARTED AT                25 LOAD25       345.00 1  V= 1.0000 AT TIME=   6.314

 No power flow data changed for load "1" at bus 12 [LOAD12      138.00]

 No power flow data changed for load "1" at bus 7 [LOAD7       345.00]

 No power flow data changed for load "1" at bus 8 [LOAD8       345.00]

 No power flow data changed for load "1" at bus 23 [LOAD23      345.00]

 No power flow data changed for load "1" at bus 16 [LOAD16      345.00]

 No power flow data changed for load "1" at bus 18 [LOAD18      345.00]

 No power flow data changed for load "1" at bus 26 [LOAD26      345.00]

 Power flow data changed for load "1" at bus 29 [LOAD29      345.00]:
 X--ORIGINAL--X  X-NEW VALUE--X  DATA ITEM
    284.971         298.750      PL

 Channel output file is "./Cases/IEEE39_RE.out"

 42 diagonal and 70 off-diagonal elements

 No power flow data changed for load "1" at bus 12 [LOAD12      138.00]

 No power flow data changed for load "1" at bus 7 [LOAD7       345.00]

 No power flow data changed for load "1" at bus 8 [LOAD8       345.00]

 No power flow data changed for load "1" at bus 23 [LOAD23      345.00]

 No power flow data changed for load "1" at bus 16 [LOAD16      345.00]

 No power flow data changed for load "1" at bus 18 [LOAD18      345.00]

 No power flow data changed for load "1" at bus 26 [LOAD26      345.00]

 Power flow data changed for load "1" at bus 29 [LOAD29      345.00]:
 X--ORIGINAL--X  X-NEW VALUE--X  DATA ITEM
    298.750         311.522      PL

 Channel output file is "./Cases/IEEE39_RE.out"

 42 diagonal and 70 off-diagonal elements

 No power flow data changed for load "1" at bus 12 [LOAD12      138.00]

 No power flow data changed for load "1" at bus 7 [LOAD7       345.00]

 No power flow data changed for load "1" at bus 8 [LOAD8       345.00]

 No power flow data changed for load "1" at bus 23 [LOAD23      345.00]

 No power flow data changed for load "1" at bus 16 [LOAD16      345.00]

 No power flow data changed for load "1" at bus 18 [LOAD18      345.00]

 No power flow data changed for load "1" at bus 26 [LOAD26      345.00]

 Power flow data changed for load "1" at bus 29 [LOAD29      345.00]:
 X--ORIGINAL--X  X-NEW VALUE--X  DATA ITEM
    311.522         321.268      PL

 Channel output file is "./Cases/IEEE39_RE.out"

 42 diagonal and 70 off-diagonal elements

 No power flow data changed for load "1" at bus 12 [LOAD12      138.00]

 No power flow data changed for load "1" at bus 7 [LOAD7       345.00]

 No power flow data changed for load "1" at bus 8 [LOAD8       345.00]

 No power flow data changed for load "1" at bus 23 [LOAD23      345.00]

 No power flow data changed for load "1" at bus 16 [LOAD16      345.00]

 No power flow data changed for load "1" at bus 18 [LOAD18      345.00]

 No power flow data changed for load "1" at bus 26 [LOAD26      345.00]

 Power flow data changed for load "1" at bus 29 [LOAD29      345.00]:
 X--ORIGINAL--X  X-NEW VALUE--X  DATA ITEM
    321.268         326.057      PL

 Channel output file is "./Cases/IEEE39_RE.out"

 42 diagonal and 70 off-diagonal elements
 LTC DELAY TIMER STARTED AT                28 LOAD28       345.00 1  V= 1.0000 AT TIME=   6.718
 LTC DELAY TIMER STARTED AT                20 LOAD20       138.00 1  V= 1.0000 AT TIME=   6.746
 LTC DELAY TIMER STARTED AT                27 LOAD27       345.00 1  V= 1.0000 AT TIME=   6.762

 No power flow data changed for load "1" at bus 12 [LOAD12      138.00]

 No power flow data changed for load "1" at bus 7 [LOAD7       345.00]

 No power flow data changed for load "1" at bus 8 [LOAD8       345.00]

 No power flow data changed for load "1" at bus 23 [LOAD23      345.00]

 No power flow data changed for load "1" at bus 16 [LOAD16      345.00]

 No power flow data changed for load "1" at bus 18 [LOAD18      345.00]

 No power flow data changed for load "1" at bus 26 [LOAD26      345.00]

 Power flow data changed for load "1" at bus 29 [LOAD29      345.00]:
 X--ORIGINAL--X  X-NEW VALUE--X  DATA ITEM
    326.057         324.301      PL

 Channel output file is "./Cases/IEEE39_RE.out"

 42 diagonal and 70 off-diagonal elements

 No power flow data changed for load "1" at bus 12 [LOAD12      138.00]

 No power flow data changed for load "1" at bus 7 [LOAD7       345.00]

 No power flow data changed for load "1" at bus 8 [LOAD8       345.00]

 No power flow data changed for load "1" at bus 23 [LOAD23      345.00]

 No power flow data changed for load "1" at bus 16 [LOAD16      345.00]

 No power flow data changed for load "1" at bus 18 [LOAD18      345.00]

 No power flow data changed for load "1" at bus 26 [LOAD26      345.00]

 Power flow data changed for load "1" at bus 29 [LOAD29      345.00]:
 X--ORIGINAL--X  X-NEW VALUE--X  DATA ITEM
    324.301         314.927      PL

 Channel output file is "./Cases/IEEE39_RE.out"

 42 diagonal and 70 off-diagonal elements

 No power flow data changed for load "1" at bus 12 [LOAD12      138.00]

 No power flow data changed for load "1" at bus 7 [LOAD7       345.00]

 No power flow data changed for load "1" at bus 8 [LOAD8       345.00]

 No power flow data changed for load "1" at bus 23 [LOAD23      345.00]

 No power flow data changed for load "1" at bus 16 [LOAD16      345.00]

 No power flow data changed for load "1" at bus 18 [LOAD18      345.00]

 No power flow data changed for load "1" at bus 26 [LOAD26      345.00]

 Power flow data changed for load "1" at bus 29 [LOAD29      345.00]:
 X--ORIGINAL--X  X-NEW VALUE--X  DATA ITEM
    314.927         297.501      PL

 Channel output file is "./Cases/IEEE39_RE.out"

 42 diagonal and 70 off-diagonal elements

 No power flow data changed for load "1" at bus 12 [LOAD12      138.00]

 No power flow data changed for load "1" at bus 7 [LOAD7       345.00]

 No power flow data changed for load "1" at bus 8 [LOAD8       345.00]

 No power flow data changed for load "1" at bus 23 [LOAD23      345.00]

 No power flow data changed for load "1" at bus 16 [LOAD16      345.00]

 No power flow data changed for load "1" at bus 18 [LOAD18      345.00]

 No power flow data changed for load "1" at bus 26 [LOAD26      345.00]

 Power flow data changed for load "1" at bus 29 [LOAD29      345.00]:
 X--ORIGINAL--X  X-NEW VALUE--X  DATA ITEM
    297.501         272.259      PL

 Channel output file is "./Cases/IEEE39_RE.out"

 42 diagonal and 70 off-diagonal elements

 No power flow data changed for load "1" at bus 12 [LOAD12      138.00]

 No power flow data changed for load "1" at bus 7 [LOAD7       345.00]

 No power flow data changed for load "1" at bus 8 [LOAD8       345.00]

 No power flow data changed for load "1" at bus 23 [LOAD23      345.00]

 No power flow data changed for load "1" at bus 16 [LOAD16      345.00]

 No power flow data changed for load "1" at bus 18 [LOAD18      345.00]

 No power flow data changed for load "1" at bus 26 [LOAD26      345.00]

 Power flow data changed for load "1" at bus 29 [LOAD29      345.00]:
 X--ORIGINAL--X  X-NEW VALUE--X  DATA ITEM
    272.259         240.040      PL

 Channel output file is "./Cases/IEEE39_RE.out"

 42 diagonal and 70 off-diagonal elements

 No power flow data changed for load "1" at bus 12 [LOAD12      138.00]

 No power flow data changed for load "1" at bus 7 [LOAD7       345.00]

 No power flow data changed for load "1" at bus 8 [LOAD8       345.00]

 No power flow data changed for load "1" at bus 23 [LOAD23      345.00]

 No power flow data changed for load "1" at bus 16 [LOAD16      345.00]

 No power flow data changed for load "1" at bus 18 [LOAD18      345.00]

 No power flow data changed for load "1" at bus 26 [LOAD26      345.00]

 Power flow data changed for load "1" at bus 29 [LOAD29      345.00]:
 X--ORIGINAL--X  X-NEW VALUE--X  DATA ITEM
    240.040         202.208      PL

 Channel output file is "./Cases/IEEE39_RE.out"

 42 diagonal and 70 off-diagonal elements

 No power flow data changed for load "1" at bus 12 [LOAD12      138.00]

 No power flow data changed for load "1" at bus 7 [LOAD7       345.00]

 No power flow data changed for load "1" at bus 8 [LOAD8       345.00]

 No power flow data changed for load "1" at bus 23 [LOAD23      345.00]

 No power flow data changed for load "1" at bus 16 [LOAD16      345.00]

 No power flow data changed for load "1" at bus 18 [LOAD18      345.00]

 No power flow data changed for load "1" at bus 26 [LOAD26      345.00]

 Power flow data changed for load "1" at bus 29 [LOAD29      345.00]:
 X--ORIGINAL--X  X-NEW VALUE--X  DATA ITEM
    202.208         160.594      PL

 Channel output file is "./Cases/IEEE39_RE.out"

 42 diagonal and 70 off-diagonal elements

 No power flow data changed for load "1" at bus 12 [LOAD12      138.00]

 No power flow data changed for load "1" at bus 7 [LOAD7       345.00]

 No power flow data changed for load "1" at bus 8 [LOAD8       345.00]

 No power flow data changed for load "1" at bus 23 [LOAD23      345.00]

 No power flow data changed for load "1" at bus 16 [LOAD16      345.00]

 No power flow data changed for load "1" at bus 18 [LOAD18      345.00]

 No power flow data changed for load "1" at bus 26 [LOAD26      345.00]

 Power flow data changed for load "1" at bus 29 [LOAD29      345.00]:
 X--ORIGINAL--X  X-NEW VALUE--X  DATA ITEM
    160.594         117.434      PL

 Channel output file is "./Cases/IEEE39_RE.out"

 42 diagonal and 70 off-diagonal elements
     LTC DELAY TIMER RESET
     LTC DELAY TIMER RESET

 No power flow data changed for load "1" at bus 12 [LOAD12      138.00]

 No power flow data changed for load "1" at bus 7 [LOAD7       345.00]

 No power flow data changed for load "1" at bus 8 [LOAD8       345.00]

 No power flow data changed for load "1" at bus 23 [LOAD23      345.00]

 No power flow data changed for load "1" at bus 16 [LOAD16      345.00]

 No power flow data changed for load "1" at bus 18 [LOAD18      345.00]

 No power flow data changed for load "1" at bus 26 [LOAD26      345.00]

 Power flow data changed for load "1" at bus 29 [LOAD29      345.00]:
 X--ORIGINAL--X  X-NEW VALUE--X  DATA ITEM
    117.434         75.1671      PL

 Channel output file is "./Cases/IEEE39_RE.out"

 42 diagonal and 70 off-diagonal elements
     LTC DELAY TIMER RESET
     LTC DELAY TIMER RESET

 No power flow data changed for load "1" at bus 12 [LOAD12      138.00]

 No power flow data changed for load "1" at bus 7 [LOAD7       345.00]

 No power flow data changed for load "1" at bus 8 [LOAD8       345.00]

 No power flow data changed for load "1" at bus 23 [LOAD23      345.00]

 No power flow data changed for load "1" at bus 16 [LOAD16      345.00]

 No power flow data changed for load "1" at bus 18 [LOAD18      345.00]

 No power flow data changed for load "1" at bus 26 [LOAD26      345.00]

 Power flow data changed for load "1" at bus 29 [LOAD29      345.00]:
 X--ORIGINAL--X  X-NEW VALUE--X  DATA ITEM
    75.1671         36.0865      PL

 Channel output file is "./Cases/IEEE39_RE.out"

 42 diagonal and 70 off-diagonal elements

 No power flow data changed for load "1" at bus 12 [LOAD12      138.00]

 No power flow data changed for load "1" at bus 7 [LOAD7       345.00]

 No power flow data changed for load "1" at bus 8 [LOAD8       345.00]

 No power flow data changed for load "1" at bus 23 [LOAD23      345.00]

 No power flow data changed for load "1" at bus 16 [LOAD16      345.00]

 No power flow data changed for load "1" at bus 18 [LOAD18      345.00]

 No power flow data changed for load "1" at bus 26 [LOAD26      345.00]

 Power flow data changed for load "1" at bus 29 [LOAD29      345.00]:
 X--ORIGINAL--X  X-NEW VALUE--X  DATA ITEM
    36.0865         1.97735      PL

 Channel output file is "./Cases/IEEE39_RE.out"

 42 diagonal and 70 off-diagonal elements

 No power flow data changed for load "1" at bus 12 [LOAD12      138.00]

 No power flow data changed for load "1" at bus 7 [LOAD7       345.00]

 No power flow data changed for load "1" at bus 8 [LOAD8       345.00]

 No power flow data changed for load "1" at bus 23 [LOAD23      345.00]

 No power flow data changed for load "1" at bus 16 [LOAD16      345.00]

 No power flow data changed for load "1" at bus 18 [LOAD18      345.00]

 No power flow data changed for load "1" at bus 26 [LOAD26      345.00]

 Power flow data changed for load "1" at bus 29 [LOAD29      345.00]:
 X--ORIGINAL--X  X-NEW VALUE--X  DATA ITEM
    1.97735        -26.0499      PL

 Channel output file is "./Cases/IEEE39_RE.out"

 42 diagonal and 70 off-diagonal elements

 No power flow data changed for load "1" at bus 12 [LOAD12      138.00]

 No power flow data changed for load "1" at bus 7 [LOAD7       345.00]

 No power flow data changed for load "1" at bus 8 [LOAD8       345.00]

 No power flow data changed for load "1" at bus 23 [LOAD23      345.00]

 No power flow data changed for load "1" at bus 16 [LOAD16      345.00]

 No power flow data changed for load "1" at bus 18 [LOAD18      345.00]

 No power flow data changed for load "1" at bus 26 [LOAD26      345.00]

 Power flow data changed for load "1" at bus 29 [LOAD29      345.00]:
 X--ORIGINAL--X  X-NEW VALUE--X  DATA ITEM
   -26.0499        -47.4748      PL

 Channel output file is "./Cases/IEEE39_RE.out"

 42 diagonal and 70 off-diagonal elements
 LTC DELAY TIMER STARTED AT                20 LOAD20       138.00 1  V= 1.0200 AT TIME=   8.082

 No power flow data changed for load "1" at bus 12 [LOAD12      138.00]

 No power flow data changed for load "1" at bus 7 [LOAD7       345.00]

 No power flow data changed for load "1" at bus 8 [LOAD8       345.00]

 No power flow data changed for load "1" at bus 23 [LOAD23      345.00]

 No power flow data changed for load "1" at bus 16 [LOAD16      345.00]

 No power flow data changed for load "1" at bus 18 [LOAD18      345.00]

 No power flow data changed for load "1" at bus 26 [LOAD26      345.00]

 Power flow data changed for load "1" at bus 29 [LOAD29      345.00]:
 X--ORIGINAL--X  X-NEW VALUE--X  DATA ITEM
   -47.4748        -62.1715      PL

 Channel output file is "./Cases/IEEE39_RE.out"

 42 diagonal and 70 off-diagonal elements

 No power flow data changed for load "1" at bus 12 [LOAD12      138.00]

 No power flow data changed for load "1" at bus 7 [LOAD7       345.00]

 No power flow data changed for load "1" at bus 8 [LOAD8       345.00]

 No power flow data changed for load "1" at bus 23 [LOAD23      345.00]

 No power flow data changed for load "1" at bus 16 [LOAD16      345.00]

 No power flow data changed for load "1" at bus 18 [LOAD18      345.00]

 No power flow data changed for load "1" at bus 26 [LOAD26      345.00]

 Power flow data changed for load "1" at bus 29 [LOAD29      345.00]:
 X--ORIGINAL--X  X-NEW VALUE--X  DATA ITEM
   -62.1715        -70.2500      PL

 Channel output file is "./Cases/IEEE39_RE.out"

 42 diagonal and 70 off-diagonal elements
 LTC DELAY TIMER STARTED AT                27 LOAD27       345.00 1  V= 1.0200 AT TIME=   8.246
 LTC DELAY TIMER STARTED AT                28 LOAD28       345.00 1  V= 1.0200 AT TIME=   8.252
 LTC DELAY TIMER STARTED AT                25 LOAD25       345.00 1  V= 1.0200 AT TIME=   8.284

 No power flow data changed for load "1" at bus 12 [LOAD12      138.00]

 No power flow data changed for load "1" at bus 7 [LOAD7       345.00]

 No power flow data changed for load "1" at bus 8 [LOAD8       345.00]

 No power flow data changed for load "1" at bus 23 [LOAD23      345.00]

 No power flow data changed for load "1" at bus 16 [LOAD16      345.00]

 No power flow data changed for load "1" at bus 18 [LOAD18      345.00]

 No power flow data changed for load "1" at bus 26 [LOAD26      345.00]

 Power flow data changed for load "1" at bus 29 [LOAD29      345.00]:
 X--ORIGINAL--X  X-NEW VALUE--X  DATA ITEM
   -70.2500        -71.9168      PL

 Channel output file is "./Cases/IEEE39_RE.out"

 42 diagonal and 70 off-diagonal elements

 No power flow data changed for load "1" at bus 12 [LOAD12      138.00]

 No power flow data changed for load "1" at bus 7 [LOAD7       345.00]

 No power flow data changed for load "1" at bus 8 [LOAD8       345.00]

 No power flow data changed for load "1" at bus 23 [LOAD23      345.00]

 No power flow data changed for load "1" at bus 16 [LOAD16      345.00]

 No power flow data changed for load "1" at bus 18 [LOAD18      345.00]

 No power flow data changed for load "1" at bus 26 [LOAD26      345.00]

 Power flow data changed for load "1" at bus 29 [LOAD29      345.00]:
 X--ORIGINAL--X  X-NEW VALUE--X  DATA ITEM
   -71.9168        -67.3089      PL

 Channel output file is "./Cases/IEEE39_RE.out"

 42 diagonal and 70 off-diagonal elements

 No power flow data changed for load "1" at bus 12 [LOAD12      138.00]

 No power flow data changed for load "1" at bus 7 [LOAD7       345.00]

 No power flow data changed for load "1" at bus 8 [LOAD8       345.00]

 No power flow data changed for load "1" at bus 23 [LOAD23      345.00]

 No power flow data changed for load "1" at bus 16 [LOAD16      345.00]

 No power flow data changed for load "1" at bus 18 [LOAD18      345.00]

 No power flow data changed for load "1" at bus 26 [LOAD26      345.00]

 Power flow data changed for load "1" at bus 29 [LOAD29      345.00]:
 X--ORIGINAL--X  X-NEW VALUE--X  DATA ITEM
   -67.3089        -56.4092      PL

 Channel output file is "./Cases/IEEE39_RE.out"

 42 diagonal and 70 off-diagonal elements

 No power flow data changed for load "1" at bus 12 [LOAD12      138.00]

 No power flow data changed for load "1" at bus 7 [LOAD7       345.00]

 No power flow data changed for load "1" at bus 8 [LOAD8       345.00]

 No power flow data changed for load "1" at bus 23 [LOAD23      345.00]

 No power flow data changed for load "1" at bus 16 [LOAD16      345.00]

 No power flow data changed for load "1" at bus 18 [LOAD18      345.00]

 No power flow data changed for load "1" at bus 26 [LOAD26      345.00]

 Power flow data changed for load "1" at bus 29 [LOAD29      345.00]:
 X--ORIGINAL--X  X-NEW VALUE--X  DATA ITEM
   -56.4092        -39.2080      PL

 Channel output file is "./Cases/IEEE39_RE.out"

 42 diagonal and 70 off-diagonal elements

 No power flow data changed for load "1" at bus 12 [LOAD12      138.00]

 No power flow data changed for load "1" at bus 7 [LOAD7       345.00]

 No power flow data changed for load "1" at bus 8 [LOAD8       345.00]

 No power flow data changed for load "1" at bus 23 [LOAD23      345.00]

 No power flow data changed for load "1" at bus 16 [LOAD16      345.00]

 No power flow data changed for load "1" at bus 18 [LOAD18      345.00]

 No power flow data changed for load "1" at bus 26 [LOAD26      345.00]

 Power flow data changed for load "1" at bus 29 [LOAD29      345.00]:
 X--ORIGINAL--X  X-NEW VALUE--X  DATA ITEM
   -39.2080        -16.0907      PL

 Channel output file is "./Cases/IEEE39_RE.out"

 42 diagonal and 70 off-diagonal elements

 No power flow data changed for load "1" at bus 12 [LOAD12      138.00]

 No power flow data changed for load "1" at bus 7 [LOAD7       345.00]

 No power flow data changed for load "1" at bus 8 [LOAD8       345.00]

 No power flow data changed for load "1" at bus 23 [LOAD23      345.00]

 No power flow data changed for load "1" at bus 16 [LOAD16      345.00]

 No power flow data changed for load "1" at bus 18 [LOAD18      345.00]

 No power flow data changed for load "1" at bus 26 [LOAD26      345.00]

 Power flow data changed for load "1" at bus 29 [LOAD29      345.00]:
 X--ORIGINAL--X  X-NEW VALUE--X  DATA ITEM
   -16.0907         11.8044      PL

 Channel output file is "./Cases/IEEE39_RE.out"

 42 diagonal and 70 off-diagonal elements

 No power flow data changed for load "1" at bus 12 [LOAD12      138.00]

 No power flow data changed for load "1" at bus 7 [LOAD7       345.00]

 No power flow data changed for load "1" at bus 8 [LOAD8       345.00]

 No power flow data changed for load "1" at bus 23 [LOAD23      345.00]

 No power flow data changed for load "1" at bus 16 [LOAD16      345.00]

 No power flow data changed for load "1" at bus 18 [LOAD18      345.00]

 No power flow data changed for load "1" at bus 26 [LOAD26      345.00]

 Power flow data changed for load "1" at bus 29 [LOAD29      345.00]:
 X--ORIGINAL--X  X-NEW VALUE--X  DATA ITEM
    11.8044         42.5552      PL

 Channel output file is "./Cases/IEEE39_RE.out"

[...]

 No power flow data changed for load "1" at bus 7 [LOAD7       345.00]

 No power flow data changed for load "1" at bus 8 [LOAD8       345.00]

 No power flow data changed for load "1" at bus 23 [LOAD23      345.00]

 No power flow data changed for load "1" at bus 16 [LOAD16      345.00]

 No power flow data changed for load "1" at bus 18 [LOAD18      345.00]

 No power flow data changed for load "1" at bus 26 [LOAD26      345.00]

 Power flow data changed for load "1" at bus 29 [LOAD29      345.00]:
 X--ORIGINAL--X  X-NEW VALUE--X  DATA ITEM
    148.936         146.288      PL

 Channel output file is "./Cases/IEEE39_RE.out"

 42 diagonal and 70 off-diagonal elements
 LTC DELAY TIMER STARTED AT                20 LOAD20       138.00 1  V= 1.0200 AT TIME=  47.459

 No power flow data changed for load "1" at bus 12 [LOAD12      138.00]

 No power flow data changed for load "1" at bus 7 [LOAD7       345.00]

 No power flow data changed for load "1" at bus 8 [LOAD8       345.00]

 No power flow data changed for load "1" at bus 23 [LOAD23      345.00]

 No power flow data changed for load "1" at bus 16 [LOAD16      345.00]

 No power flow data changed for load "1" at bus 18 [LOAD18      345.00]

 No power flow data changed for load "1" at bus 26 [LOAD26      345.00]

 Power flow data changed for load "1" at bus 29 [LOAD29      345.00]:
 X--ORIGINAL--X  X-NEW VALUE--X  DATA ITEM
    146.288         143.900      PL

 Channel output file is "./Cases/IEEE39_RE.out"

 42 diagonal and 70 off-diagonal elements

 No power flow data changed for load "1" at bus 12 [LOAD12      138.00]

 No power flow data changed for load "1" at bus 7 [LOAD7       345.00]

 No power flow data changed for load "1" at bus 8 [LOAD8       345.00]

 No power flow data changed for load "1" at bus 23 [LOAD23      345.00]

 No power flow data changed for load "1" at bus 16 [LOAD16      345.00]

 No power flow data changed for load "1" at bus 18 [LOAD18      345.00]

 No power flow data changed for load "1" at bus 26 [LOAD26      345.00]

 Power flow data changed for load "1" at bus 29 [LOAD29      345.00]:
 X--ORIGINAL--X  X-NEW VALUE--X  DATA ITEM
    143.900         141.229      PL

 Channel output file is "./Cases/IEEE39_RE.out"

 42 diagonal and 70 off-diagonal elements

 No power flow data changed for load "1" at bus 12 [LOAD12      138.00]

 No power flow data changed for load "1" at bus 7 [LOAD7       345.00]

 No power flow data changed for load "1" at bus 8 [LOAD8       345.00]

 No power flow data changed for load "1" at bus 23 [LOAD23      345.00]

 No power flow data changed for load "1" at bus 16 [LOAD16      345.00]

 No power flow data changed for load "1" at bus 18 [LOAD18      345.00]

 No power flow data changed for load "1" at bus 26 [LOAD26      345.00]

 Power flow data changed for load "1" at bus 29 [LOAD29      345.00]:
 X--ORIGINAL--X  X-NEW VALUE--X  DATA ITEM
    141.229         137.782      PL

 Channel output file is "./Cases/IEEE39_RE.out"

 42 diagonal and 70 off-diagonal elements
 LTC DELAY TIMER STARTED AT                27 LOAD27       345.00 1  V= 1.0200 AT TIME=  47.737

 No power flow data changed for load "1" at bus 12 [LOAD12      138.00]

 No power flow data changed for load "1" at bus 7 [LOAD7       345.00]

 No power flow data changed for load "1" at bus 8 [LOAD8       345.00]

 No power flow data changed for load "1" at bus 23 [LOAD23      345.00]

 No power flow data changed for load "1" at bus 16 [LOAD16      345.00]

 No power flow data changed for load "1" at bus 18 [LOAD18      345.00]

 No power flow data changed for load "1" at bus 26 [LOAD26      345.00]

 Power flow data changed for load "1" at bus 29 [LOAD29      345.00]:
 X--ORIGINAL--X  X-NEW VALUE--X  DATA ITEM
    137.782         133.275      PL

 Channel output file is "./Cases/IEEE39_RE.out"

 42 diagonal and 70 off-diagonal elements

 No power flow data changed for load "1" at bus 12 [LOAD12      138.00]

 No power flow data changed for load "1" at bus 7 [LOAD7       345.00]

 No power flow data changed for load "1" at bus 8 [LOAD8       345.00]

 No power flow data changed for load "1" at bus 23 [LOAD23      345.00]

 No power flow data changed for load "1" at bus 16 [LOAD16      345.00]

 No power flow data changed for load "1" at bus 18 [LOAD18      345.00]

 No power flow data changed for load "1" at bus 26 [LOAD26      345.00]

 Power flow data changed for load "1" at bus 29 [LOAD29      345.00]:
 X--ORIGINAL--X  X-NEW VALUE--X  DATA ITEM
    133.275         127.682      PL

 Channel output file is "./Cases/IEEE39_RE.out"

 42 diagonal and 70 off-diagonal elements

 No power flow data changed for load "1" at bus 12 [LOAD12      138.00]

 No power flow data changed for load "1" at bus 7 [LOAD7       345.00]

 No power flow data changed for load "1" at bus 8 [LOAD8       345.00]

 No power flow data changed for load "1" at bus 23 [LOAD23      345.00]

 No power flow data changed for load "1" at bus 16 [LOAD16      345.00]

 No power flow data changed for load "1" at bus 18 [LOAD18      345.00]

 No power flow data changed for load "1" at bus 26 [LOAD26      345.00]

 Power flow data changed for load "1" at bus 29 [LOAD29      345.00]:
 X--ORIGINAL--X  X-NEW VALUE--X  DATA ITEM
    127.682         121.214      PL

 Channel output file is "./Cases/IEEE39_RE.out"

 42 diagonal and 70 off-diagonal elements

 No power flow data changed for load "1" at bus 12 [LOAD12      138.00]

 No power flow data changed for load "1" at bus 7 [LOAD7       345.00]

 No power flow data changed for load "1" at bus 8 [LOAD8       345.00]

 No power flow data changed for load "1" at bus 23 [LOAD23      345.00]

 No power flow data changed for load "1" at bus 16 [LOAD16      345.00]

 No power flow data changed for load "1" at bus 18 [LOAD18      345.00]

 No power flow data changed for load "1" at bus 26 [LOAD26      345.00]

 Power flow data changed for load "1" at bus 29 [LOAD29      345.00]:
 X--ORIGINAL--X  X-NEW VALUE--X  DATA ITEM
    121.214         114.308      PL

 Channel output file is "./Cases/IEEE39_RE.out"

 42 diagonal and 70 off-diagonal elements

 No power flow data changed for load "1" at bus 12 [LOAD12      138.00]

 No power flow data changed for load "1" at bus 7 [LOAD7       345.00]

 No power flow data changed for load "1" at bus 8 [LOAD8       345.00]

 No power flow data changed for load "1" at bus 23 [LOAD23      345.00]

 No power flow data changed for load "1" at bus 16 [LOAD16      345.00]

 No power flow data changed for load "1" at bus 18 [LOAD18      345.00]

 No power flow data changed for load "1" at bus 26 [LOAD26      345.00]

 Power flow data changed for load "1" at bus 29 [LOAD29      345.00]:
 X--ORIGINAL--X  X-NEW VALUE--X  DATA ITEM
    114.308         107.588      PL

 Channel output file is "./Cases/IEEE39_RE.out"

 42 diagonal and 70 off-diagonal elements

 No power flow data changed for load "1" at bus 12 [LOAD12      138.00]

 No power flow data changed for load "1" at bus 7 [LOAD7       345.00]

 No power flow data changed for load "1" at bus 8 [LOAD8       345.00]

 No power flow data changed for load "1" at bus 23 [LOAD23      345.00]

 No power flow data changed for load "1" at bus 16 [LOAD16      345.00]

 No power flow data changed for load "1" at bus 18 [LOAD18      345.00]

 No power flow data changed for load "1" at bus 26 [LOAD26      345.00]

 Power flow data changed for load "1" at bus 29 [LOAD29      345.00]:
 X--ORIGINAL--X  X-NEW VALUE--X  DATA ITEM
    107.588         101.702      PL

 Channel output file is "./Cases/IEEE39_RE.out"

 42 diagonal and 70 off-diagonal elements

 No power flow data changed for load "1" at bus 12 [LOAD12      138.00]

 No power flow data changed for load "1" at bus 7 [LOAD7       345.00]

 No power flow data changed for load "1" at bus 8 [LOAD8       345.00]

 No power flow data changed for load "1" at bus 23 [LOAD23      345.00]

 No power flow data changed for load "1" at bus 16 [LOAD16      345.00]

 No power flow data changed for load "1" at bus 18 [LOAD18      345.00]

 No power flow data changed for load "1" at bus 26 [LOAD26      345.00]

 Power flow data changed for load "1" at bus 29 [LOAD29      345.00]:
 X--ORIGINAL--X  X-NEW VALUE--X  DATA ITEM
    101.702         96.9860      PL

 Channel output file is "./Cases/IEEE39_RE.out"

 42 diagonal and 70 off-diagonal elements
     LTC DELAY TIMER RESET

 No power flow data changed for load "1" at bus 12 [LOAD12      138.00]

 No power flow data changed for load "1" at bus 7 [LOAD7       345.00]

 No power flow data changed for load "1" at bus 8 [LOAD8       345.00]

 No power flow data changed for load "1" at bus 23 [LOAD23      345.00]

 No power flow data changed for load "1" at bus 16 [LOAD16      345.00]

 No power flow data changed for load "1" at bus 18 [LOAD18      345.00]

 No power flow data changed for load "1" at bus 26 [LOAD26      345.00]

 Power flow data changed for load "1" at bus 29 [LOAD29      345.00]:
 X--ORIGINAL--X  X-NEW VALUE--X  DATA ITEM
    96.9860         93.1882      PL

 Channel output file is "./Cases/IEEE39_RE.out"

 42 diagonal and 70 off-diagonal elements

 No power flow data changed for load "1" at bus 12 [LOAD12      138.00]

 No power flow data changed for load "1" at bus 7 [LOAD7       345.00]

 No power flow data changed for load "1" at bus 8 [LOAD8       345.00]

 No power flow data changed for load "1" at bus 23 [LOAD23      345.00]

 No power flow data changed for load "1" at bus 16 [LOAD16      345.00]

 No power flow data changed for load "1" at bus 18 [LOAD18      345.00]

 No power flow data changed for load "1" at bus 26 [LOAD26      345.00]

 Power flow data changed for load "1" at bus 29 [LOAD29      345.00]:
 X--ORIGINAL--X  X-NEW VALUE--X  DATA ITEM
    93.1882         89.4726      PL

 Channel output file is "./Cases/IEEE39_RE.out"

 42 diagonal and 70 off-diagonal elements

 No power flow data changed for load "1" at bus 12 [LOAD12      138.00]

 No power flow data changed for load "1" at bus 7 [LOAD7       345.00]

 No power flow data changed for load "1" at bus 8 [LOAD8       345.00]

 No power flow data changed for load "1" at bus 23 [LOAD23      345.00]

 No power flow data changed for load "1" at bus 16 [LOAD16      345.00]

 No power flow data changed for load "1" at bus 18 [LOAD18      345.00]

 No power flow data changed for load "1" at bus 26 [LOAD26      345.00]

 Power flow data changed for load "1" at bus 29 [LOAD29      345.00]:
 X--ORIGINAL--X  X-NEW VALUE--X  DATA ITEM
    89.4726         84.7313      PL

 Channel output file is "./Cases/IEEE39_RE.out"

 42 diagonal and 70 off-diagonal elements

 No power flow data changed for load "1" at bus 12 [LOAD12      138.00]

 No power flow data changed for load "1" at bus 7 [LOAD7       345.00]

 No power flow data changed for load "1" at bus 8 [LOAD8       345.00]

 No power flow data changed for load "1" at bus 23 [LOAD23      345.00]

 No power flow data changed for load "1" at bus 16 [LOAD16      345.00]

 No power flow data changed for load "1" at bus 18 [LOAD18      345.00]

 No power flow data changed for load "1" at bus 26 [LOAD26      345.00]

 Power flow data changed for load "1" at bus 29 [LOAD29      345.00]:
 X--ORIGINAL--X  X-NEW VALUE--X  DATA ITEM
    84.7313         77.9827      PL

 Channel output file is "./Cases/IEEE39_RE.out"

 42 diagonal and 70 off-diagonal elements
     LTC DELAY TIMER RESET

 No power flow data changed for load "1" at bus 12 [LOAD12      138.00]

 No power flow data changed for load "1" at bus 7 [LOAD7       345.00]

 No power flow data changed for load "1" at bus 8 [LOAD8       345.00]

 No power flow data changed for load "1" at bus 23 [LOAD23      345.00]

 No power flow data changed for load "1" at bus 16 [LOAD16      345.00]

 No power flow data changed for load "1" at bus 18 [LOAD18      345.00]

 No power flow data changed for load "1" at bus 26 [LOAD26      345.00]

 Power flow data changed for load "1" at bus 29 [LOAD29      345.00]:
 X--ORIGINAL--X  X-NEW VALUE--X  DATA ITEM
    77.9827         68.6040      PL

 Channel output file is "./Cases/IEEE39_RE.out"

 42 diagonal and 70 off-diagonal elements

 No power flow data changed for load "1" at bus 12 [LOAD12      138.00]

 No power flow data changed for load "1" at bus 7 [LOAD7       345.00]

 No power flow data changed for load "1" at bus 8 [LOAD8       345.00]

 No power flow data changed for load "1" at bus 23 [LOAD23      345.00]

 No power flow data changed for load "1" at bus 16 [LOAD16      345.00]

 No power flow data changed for load "1" at bus 18 [LOAD18      345.00]

 No power flow data changed for load "1" at bus 26 [LOAD26      345.00]

 Power flow data changed for load "1" at bus 29 [LOAD29      345.00]:
 X--ORIGINAL--X  X-NEW VALUE--X  DATA ITEM
    68.6040         56.3324      PL

 Channel output file is "./Cases/IEEE39_RE.out"

 42 diagonal and 70 off-diagonal elements

 No power flow data changed for load "1" at bus 12 [LOAD12      138.00]

 No power flow data changed for load "1" at bus 7 [LOAD7       345.00]

 No power flow data changed for load "1" at bus 8 [LOAD8       345.00]

 No power flow data changed for load "1" at bus 23 [LOAD23      345.00]

 No power flow data changed for load "1" at bus 16 [LOAD16      345.00]

 No power flow data changed for load "1" at bus 18 [LOAD18      345.00]

 No power flow data changed for load "1" at bus 26 [LOAD26      345.00]

 Power flow data changed for load "1" at bus 29 [LOAD29      345.00]:
 X--ORIGINAL--X  X-NEW VALUE--X  DATA ITEM
    56.3324         41.1956      PL

 Channel output file is "./Cases/IEEE39_RE.out"

 42 diagonal and 70 off-diagonal elements

 No power flow data changed for load "1" at bus 12 [LOAD12      138.00]

 No power flow data changed for load "1" at bus 7 [LOAD7       345.00]

 No power flow data changed for load "1" at bus 8 [LOAD8       345.00]

 No power flow data changed for load "1" at bus 23 [LOAD23      345.00]

 No power flow data changed for load "1" at bus 16 [LOAD16      345.00]

 No power flow data changed for load "1" at bus 18 [LOAD18      345.00]

 No power flow data changed for load "1" at bus 26 [LOAD26      345.00]

 Power flow data changed for load "1" at bus 29 [LOAD29      345.00]:
 X--ORIGINAL--X  X-NEW VALUE--X  DATA ITEM
    41.1956         23.5143      PL

 Channel output file is "./Cases/IEEE39_RE.out"

 42 diagonal and 70 off-diagonal elements

 No power flow data changed for load "1" at bus 12 [LOAD12      138.00]

 No power flow data changed for load "1" at bus 7 [LOAD7       345.00]

 No power flow data changed for load "1" at bus 8 [LOAD8       345.00]

 No power flow data changed for load "1" at bus 23 [LOAD23      345.00]

 No power flow data changed for load "1" at bus 16 [LOAD16      345.00]

 No power flow data changed for load "1" at bus 18 [LOAD18      345.00]

 No power flow data changed for load "1" at bus 26 [LOAD26      345.00]

 Power flow data changed for load "1" at bus 29 [LOAD29      345.00]:
 X--ORIGINAL--X  X-NEW VALUE--X  DATA ITEM
    23.5143         3.93313      PL

 Channel output file is "./Cases/IEEE39_RE.out"

 42 diagonal and 70 off-diagonal elements

 No power flow data changed for load "1" at bus 12 [LOAD12      138.00]

 No power flow data changed for load "1" at bus 7 [LOAD7       345.00]

 No power flow data changed for load "1" at bus 8 [LOAD8       345.00]

 No power flow data changed for load "1" at bus 23 [LOAD23      345.00]

 No power flow data changed for load "1" at bus 16 [LOAD16      345.00]

 No power flow data changed for load "1" at bus 18 [LOAD18      345.00]

 No power flow data changed for load "1" at bus 26 [LOAD26      345.00]

 Power flow data changed for load "1" at bus 29 [LOAD29      345.00]:
 X--ORIGINAL--X  X-NEW VALUE--X  DATA ITEM
    3.93313        -16.6295      PL

 Channel output file is "./Cases/IEEE39_RE.out"

 42 diagonal and 70 off-diagonal elements
 LTC DELAY TIMER STARTED AT                20 LOAD20       138.00 1  V= 1.0200 AT TIME=  49.448

 No power flow data changed for load "1" at bus 12 [LOAD12      138.00]

 No power flow data changed for load "1" at bus 7 [LOAD7       345.00]

 No power flow data changed for load "1" at bus 8 [LOAD8       345.00]

 No power flow data changed for load "1" at bus 23 [LOAD23      345.00]

 No power flow data changed for load "1" at bus 16 [LOAD16      345.00]

 No power flow data changed for load "1" at bus 18 [LOAD18      345.00]

 No power flow data changed for load "1" at bus 26 [LOAD26      345.00]

 Power flow data changed for load "1" at bus 29 [LOAD29      345.00]:
 X--ORIGINAL--X  X-NEW VALUE--X  DATA ITEM
   -16.6295        -37.1015      PL

 Channel output file is "./Cases/IEEE39_RE.out"

 42 diagonal and 70 off-diagonal elements

 No power flow data changed for load "1" at bus 12 [LOAD12      138.00]

 No power flow data changed for load "1" at bus 7 [LOAD7       345.00]

 No power flow data changed for load "1" at bus 8 [LOAD8       345.00]

 No power flow data changed for load "1" at bus 23 [LOAD23      345.00]

 No power flow data changed for load "1" at bus 16 [LOAD16      345.00]

 No power flow data changed for load "1" at bus 18 [LOAD18      345.00]

 No power flow data changed for load "1" at bus 26 [LOAD26      345.00]

 Power flow data changed for load "1" at bus 29 [LOAD29      345.00]:
 X--ORIGINAL--X  X-NEW VALUE--X  DATA ITEM
   -37.1015        -56.3627      PL

 Channel output file is "./Cases/IEEE39_RE.out"

 42 diagonal and 70 off-diagonal elements

 No power flow data changed for load "1" at bus 12 [LOAD12      138.00]

 No power flow data changed for load "1" at bus 7 [LOAD7       345.00]

 No power flow data changed for load "1" at bus 8 [LOAD8       345.00]

 No power flow data changed for load "1" at bus 23 [LOAD23      345.00]

 No power flow data changed for load "1" at bus 16 [LOAD16      345.00]

 No power flow data changed for load "1" at bus 18 [LOAD18      345.00]

 No power flow data changed for load "1" at bus 26 [LOAD26      345.00]

 Power flow data changed for load "1" at bus 29 [LOAD29      345.00]:
 X--ORIGINAL--X  X-NEW VALUE--X  DATA ITEM
   -56.3627        -73.2877      PL

 Channel output file is "./Cases/IEEE39_RE.out"

 42 diagonal and 70 off-diagonal elements

 No power flow data changed for load "1" at bus 12 [LOAD12      138.00]

 No power flow data changed for load "1" at bus 7 [LOAD7       345.00]

 No power flow data changed for load "1" at bus 8 [LOAD8       345.00]

 No power flow data changed for load "1" at bus 23 [LOAD23      345.00]

 No power flow data changed for load "1" at bus 16 [LOAD16      345.00]

 No power flow data changed for load "1" at bus 18 [LOAD18      345.00]

 No power flow data changed for load "1" at bus 26 [LOAD26      345.00]

 Power flow data changed for load "1" at bus 29 [LOAD29      345.00]:
 X--ORIGINAL--X  X-NEW VALUE--X  DATA ITEM
   -73.2877        -86.7055      PL

 Channel output file is "./Cases/IEEE39_RE.out"

 42 diagonal and 70 off-diagonal elements

 No power flow data changed for load "1" at bus 12 [LOAD12      138.00]

 No power flow data changed for load "1" at bus 7 [LOAD7       345.00]

 No power flow data changed for load "1" at bus 8 [LOAD8       345.00]

 No power flow data changed for load "1" at bus 23 [LOAD23      345.00]

 No power flow data changed for load "1" at bus 16 [LOAD16      345.00]

 No power flow data changed for load "1" at bus 18 [LOAD18      345.00]

 No power flow data changed for load "1" at bus 26 [LOAD26      345.00]

 Power flow data changed for load "1" at bus 29 [LOAD29      345.00]:
 X--ORIGINAL--X  X-NEW VALUE--X  DATA ITEM
   -86.7055        -95.3021      PL

 Channel output file is "./Cases/IEEE39_RE.out"

 42 diagonal and 70 off-diagonal elements
 LTC DELAY TIMER STARTED AT                25 LOAD25       345.00 1  V= 1.0200 AT TIME=  49.920
 LTC DELAY TIMER STARTED AT                27 LOAD27       345.00 1  V= 1.0200 AT TIME=  49.950
