
 PSS(R)E Version 35
 Copyright (c) 1976-2025
 Siemens Industry, Inc.,
 Power Technologies International                            (PTI)
 This program is a confidential  unpublished  work  created  and  first
 licensed in 1976.  It is a trade secret which is the property of  PTI.
 All use,  disclosure,  and/or reproduction not specifically authorized
 by  PTI  is prohibited.   This  program is protected  under  copyright
 laws  of  non-U.S.  countries  and  by  application  of  international
 treaties.  All  Rights  Reserved  Under  The  Copyright  Laws.


           SIEMENS POWER TECHNOLOGIES INTERNATIONAL

      20000 BUS POWER SYSTEM SIMULATOR--PSS(R)E-35.5.0

             INITIATED ON THU, AUG 28 2025  21:44

 NEW ENGLAND TEST SYSTEM, 39 BUSES, 9 GENERATORS, 2 AREAS, 4
 UPDATED BY JOSE CONTO


 Power flow solution parameters changed:
 X--ORIGINAL--X  X-NEW VALUE--X  DATA ITEM
         20             100      ITMXN

 3 loads converted during this step

 16 loads converted during this step

 19 of 19 loads converted

  ITER       DELTAP      BUS         DELTAQ      BUS        DELTA/V/      BUS       DELTAANG      BUS
   0.0       0.0001(      6     )    0.0000(      8     )
                                                             0.00000(            )   0.00000(     31     )
   0.5       0.0000(     31     )    0.0000(     31     )
                                                             0.00000(     31     )   0.00000(            )
   1.0       0.0000(      6     )    0.0000(     31     )


 Reached tolerance in 1 iterations

 Largest mismatch:     -0.00 MW     -0.00 Mvar      0.00 MVA at bus 6 [BUS6        345.00]
 System total absolute mismatch:                    0.00 MVA

 SWING BUS SUMMARY:
   BUS#-SCT X-- NAME --X BASKV      PGEN     PMAX    PMIN      QGEN     QMAX    QMIN
     39     GEN39       345.00     708.5   1090.0     0.0     115.9    574.8  -173.3

 Generator conversion completed using ZSORCE
 Diagonals = 42   Off-diagonals = 70   Maximum size = 98

 42 diagonal and 70 off-diagonal elements

 ITER DELTAV/TOL X----------- AT BUS -----------X  REAL(DELTAV)  IMAG(DELTAV)
    1     0.015      31     [GEN31       34.500]    0.1491E-06    0.6691E-08

 Reached tolerance in 1 iterations

 Largest mismatch:      0.01 MW      0.03 Mvar      0.03 MVA at bus 39 [GEN39       345.00]
 System total absolute mismatch:                    0.06 MVA

 ITER DELTAV/TOL X----------- AT BUS -----------X  REAL(DELTAV)  IMAG(DELTAV)
    1     0.001       8     [LOAD8       345.00]    0.5288E-08   -0.5221E-08

 Reached tolerance in 1 iterations

 Largest mismatch:      0.01 MW      0.03 Mvar      0.03 MVA at bus 39 [GEN39       345.00]
 System total absolute mismatch:                    0.06 MVA


 Model "REGCAU1" at bus 40     [RE40_2      345.00] converted to Model "REGCA1"

 Model "REECAU1" at bus 40     [RE40_2      345.00] converted to Model "REECA1"

 Model "REPCAU1" at bus 40     [RE40_2      345.00] converted to Model "REPCA1"

 Model "REGCAU1" at bus 41     [RE41_29     345.00] converted to Model "REGCA1"

 Model "REECAU1" at bus 41     [RE41_29     345.00] converted to Model "REECA1"

 Model "REPCAU1" at bus 41     [RE41_29     345.00] converted to Model "REPCA1"

 Model "REGCAU1" at bus 42     [RE42_39     345.00] converted to Model "REGCA1"

 Model "REECAU1" at bus 42     [RE42_39     345.00] converted to Model "REECA1"

 Model "REPCAU1" at bus 42     [RE42_39     345.00] converted to Model "REPCA1"

 Model "GENTPJU1" at bus 30     [GEN30       34.500] converted to Model "GENTPJ1"

 Model "GENTPJU1" at bus 31     [GEN31       34.500] converted to Model "GENTPJ1"

 Model "GENTPJU1" at bus 32     [GEN32       21.000] converted to Model "GENTPJ1"

 Model "GENTPJU1" at bus 33     [GEN33       21.000] converted to Model "GENTPJ1"

 Model "GENTPJU1" at bus 34     [GEN34       15.500] converted to Model "GENTPJ1"

 Model "GENTPJU1" at bus 35     [GEN35       15.500] converted to Model "GENTPJ1"

 Model "GENTPJU1" at bus 36     [GEN36       12.500] converted to Model "GENTPJ1"

 Model "GENTPJU1" at bus 37     [GEN37       12.500] converted to Model "GENTPJ1"

 Model "GENTPJU1" at bus 38     [GEN38       34.500] converted to Model "GENTPJ1"

 Model "GENTPJU1" at bus 39     [GEN39       345.00] converted to Model "GENTPJ1"
 Out of file data--switch to terminal input mode

 Generator models use:
  CONS         1-    160
  STATES       1-     60
  VARS         1-     10

 Stabilizer models use:
  CONS       161-    330
  STATES      61-    220
  VARS        11-     50
  ICONS        1-     60

 Excitation System models use:
  CONS       331-    490
  STATES     221-    270
  VARS        51-     60

 Turbine Governor models use:
  CONS       491-    600
  STATES     271-    320
  VARS        61-     70

 Renewable Generator models use:
  CONS       601-    642
  STATES     321-    329
  VARS        71-     82
  ICONS       61-     63

 Renewable Electrical models use:
  CONS       643-    777
  STATES     330-    347
  VARS        83-    109
  ICONS       64-     81

 Renewable Auxiliary models use:
  CONS       778-    858
  STATES     348-    368
  VARS       110-    136
  ICONS       82-    102


 SUMMARY OF MODELS READ:

 GENS:  GENTPJ1
          10

 STABS: PSS2A
          10

 EXSYS: IEEEX1
          10

 GOVS:  IEESGO
          10

 REGEN: REGCA1
           3

 REELC: REECA1
           3

 REPLN: REPCA1
           3

 NEXT AVAILABLE ADDRESSES ARE:
     CON   STATE     VAR    ICON
     859     369     137     103

 Only PSSE supplied models in case. Compilation is not required

 Out of file data--switch to terminal input mode

 Shared Load Characteristic models use:
  CONS       859-   1257
  ICONS      103-    108

 Unshared Load models use:
  STATES     369-    449
  VARS       137-    574
  ICONS      109-    252


 SUMMARY OF MODELS READ:

 USER:  USRLOD
           3

 NEXT AVAILABLE ADDRESSES ARE:
     CON   STATE     VAR    ICON
    1258     450     575     253

 CONEC and CONET (if present) are unchanged. Compile CONEC and CONET (if present) and
 Compile models not supplied by PSSE and create user dll

 6 Output channels have been added


 Next available addresses are:
   CHANNEL    VAR    ICON
        7     581     256

 3 Output channels have been added


 Next available addresses are:
   CHANNEL    VAR    ICON
       10     581     256

 3 Output channels have been added


 Next available addresses are:
   CHANNEL    VAR    ICON
       13     581     256

 CHANNEL   13 WITH IDENTIFIER "BUS3 LOAD MVA" ADDED

 CHANNEL   14 WITH IDENTIFIER "BUS3 UD" ADDED

 CHANNEL   15 WITH IDENTIFIER "BUS3 UQ" ADDED

 CHANNEL   16 WITH IDENTIFIER "BUS3 LOAD BUS V" ADDED

 CHANNEL   17 WITH IDENTIFIER "BUS3 LOW SIDE BUS V" ADDED

 CHANNEL   18 WITH IDENTIFIER "BUS3 MA P" ADDED

 CHANNEL   19 WITH IDENTIFIER "BUS3 MA Q" ADDED

 CHANNEL   20 WITH IDENTIFIER "BUS3 TELE" ADDED

 CHANNEL   21 WITH IDENTIFIER "BUS3 SPEED DEVIATION" ADDED

 CHANNEL   22 WITH IDENTIFIER "BUS3 INIT LOAD TORQUE" ADDED

 CHANNEL   23 WITH IDENTIFIER "BUS3 ID" ADDED

 CHANNEL   24 WITH IDENTIFIER "BUS3 IQ" ADDED

 CHANNEL   25 WITH IDENTIFIER "BUS3 MA I" ADDED

 CHANNEL   26 WITH IDENTIFIER "BUS3 MA MVA" ADDED

 CHANNEL   27 WITH IDENTIFIER "BUS3 TL" ADDED

 CHANNEL   28 WITH IDENTIFIER "BUS3 EQ1" ADDED

 CHANNEL   29 WITH IDENTIFIER "BUS3 ED1" ADDED

 CHANNEL   30 WITH IDENTIFIER "BUS3 EQ2" ADDED

 CHANNEL   31 WITH IDENTIFIER "BUS3 ED2" ADDED

 CHANNEL   32 WITH IDENTIFIER "BUS3 SPEED DEVIATION" ADDED

 CHANNEL   33 WITH IDENTIFIER "BUS3 ANGLE DEVIATION" ADDED

 42 diagonal and 70 off-diagonal elements

 Models have removed constant admittance load and/or machines--REFACTORIZING

 42 diagonal and 70 off-diagonal elements

 Model REPCA1 Bus 40 [RE40_2      345.00] Machine "1 " :
 Branch not defined in ICONs M+1 through M+3: Model will use machine power instead

 Model REPCA1 Bus 41 [RE41_29     345.00] Machine "1 " :
 Branch not defined in ICONs M+1 through M+3: Model will use machine power instead

 Model REPCA1 Bus 42 [RE42_39     345.00] Machine "1 " :
 Branch not defined in ICONs M+1 through M+3: Model will use machine power instead

     PTI INTERACTIVE POWER SYSTEM SIMULATOR--PSS(R)E     THU, AUG 28 2025  21:44
 NEW ENGLAND TEST SYSTEM, 39 BUSES, 9 GENERATORS, 2 AREAS, 4
 UPDATED BY JOSE CONTO

 INITIAL CONDITION LOAD FLOW USED 1 ITERATIONS

 ----------------------------- MACHINE INITIAL CONDITIONS -----------------------------
   BUS#-SCT X-- NAME --X BASKV ID  ETERM   EFD    POWER    VARS   P.F.  ANGLE   ID     IQ
     30     GEN30       34.500 1  1.0268 2.7988  250.00  153.18 0.8527  20.74 0.9477 0.4243
     31     GEN31       34.500 1  1.0015 2.6667  572.93  429.80 0.7999  12.21 0.7725 0.3675
     32     GEN32       21.000 1  0.9831 1.7067  450.00  121.03 0.9657  19.16 0.4270 0.3651
     33     GEN33       21.000 1  0.9972 1.7346  632.00  176.55 0.9631  21.62 0.4236 0.3665
     34     GEN34       15.500 1  1.0123 1.7352  508.00  198.31 0.9315  14.96 0.3802 0.3227
     35     GEN35       15.500 1  1.0493 1.9708  450.00  260.05 0.8658   7.49 0.3538 0.2880
     36     GEN36       12.500 1  1.0635 1.8249  560.00  137.20 0.9713  21.31 0.3661 0.3816
     37     GEN37       12.500 1  1.0278 1.7353  540.00   96.30 0.9845  25.24 0.3818 0.3960
     38     GEN38       34.500 1  1.0265 1.5151  629.99  145.13 0.9745  18.75 0.2311 0.2940
     39     GEN39       345.00 1  1.0300 1.7565  708.52  115.91 0.9869  24.50 0.4092 0.4129
     40     RE40_2      345.00 1  1.0200 0.0000  200.00   -2.28 0.9999 -10.68-0.0112 0.9804
     41     RE41_29     345.00 1  1.0150 0.0000  200.00  -19.03 0.9955  -6.36-0.0937 0.9852
     42     RE42_39     345.00 1  1.0250 0.0000  200.00   -0.76 1.0000  -5.52-0.0037 0.9756

 INITIAL CONDITIONS CHECK O.K.

 Channel output file is "./Cases/IEEE39_RE.out"

 No power flow data changed for load "1" at bus 12 [LOAD12      138.00]

 No power flow data changed for load "1" at bus 7 [LOAD7       345.00]

 No power flow data changed for load "1" at bus 8 [LOAD8       345.00]

 No power flow data changed for load "1" at bus 23 [LOAD23      345.00]

 No power flow data changed for load "1" at bus 16 [LOAD16      345.00]

 No power flow data changed for load "1" at bus 18 [LOAD18      345.00]

 No power flow data changed for load "1" at bus 26 [LOAD26      345.00]

 Power flow data changed for load "1" at bus 29 [LOAD29      345.00]:
 X--ORIGINAL--X  X-NEW VALUE--X  DATA ITEM
    0.00000        0.399480E-04  PL

 Channel output file is "./Cases/IEEE39_RE.out"

 42 diagonal and 70 off-diagonal elements

 No power flow data changed for load "1" at bus 12 [LOAD12      138.00]

 No power flow data changed for load "1" at bus 7 [LOAD7       345.00]

 No power flow data changed for load "1" at bus 8 [LOAD8       345.00]

 No power flow data changed for load "1" at bus 23 [LOAD23      345.00]

 No power flow data changed for load "1" at bus 16 [LOAD16      345.00]

 No power flow data changed for load "1" at bus 18 [LOAD18      345.00]

 No power flow data changed for load "1" at bus 26 [LOAD26      345.00]

 Power flow data changed for load "1" at bus 29 [LOAD29      345.00]:
 X--ORIGINAL--X  X-NEW VALUE--X  DATA ITEM
   0.399480E-04     17.4167      PL

 Channel output file is "./Cases/IEEE39_RE.out"

 42 diagonal and 70 off-diagonal elements

 No power flow data changed for load "1" at bus 12 [LOAD12      138.00]

 No power flow data changed for load "1" at bus 7 [LOAD7       345.00]

 No power flow data changed for load "1" at bus 8 [LOAD8       345.00]

 No power flow data changed for load "1" at bus 23 [LOAD23      345.00]

 No power flow data changed for load "1" at bus 16 [LOAD16      345.00]

 No power flow data changed for load "1" at bus 18 [LOAD18      345.00]

 No power flow data changed for load "1" at bus 26 [LOAD26      345.00]

 Power flow data changed for load "1" at bus 29 [LOAD29      345.00]:
 X--ORIGINAL--X  X-NEW VALUE--X  DATA ITEM
    17.4167        -54.7843      PL

 Channel output file is "./Cases/IEEE39_RE.out"

 42 diagonal and 70 off-diagonal elements

 No power flow data changed for load "1" at bus 12 [LOAD12      138.00]

 No power flow data changed for load "1" at bus 7 [LOAD7       345.00]

 No power flow data changed for load "1" at bus 8 [LOAD8       345.00]

 No power flow data changed for load "1" at bus 23 [LOAD23      345.00]

 No power flow data changed for load "1" at bus 16 [LOAD16      345.00]

 No power flow data changed for load "1" at bus 18 [LOAD18      345.00]

 No power flow data changed for load "1" at bus 26 [LOAD26      345.00]

 Power flow data changed for load "1" at bus 29 [LOAD29      345.00]:
 X--ORIGINAL--X  X-NEW VALUE--X  DATA ITEM
   -54.7843        -79.4999      PL

 Channel output file is "./Cases/IEEE39_RE.out"

 42 diagonal and 70 off-diagonal elements

 No power flow data changed for load "1" at bus 12 [LOAD12      138.00]

 No power flow data changed for load "1" at bus 7 [LOAD7       345.00]

 No power flow data changed for load "1" at bus 8 [LOAD8       345.00]

 No power flow data changed for load "1" at bus 23 [LOAD23      345.00]

 No power flow data changed for load "1" at bus 16 [LOAD16      345.00]

 No power flow data changed for load "1" at bus 18 [LOAD18      345.00]

 No power flow data changed for load "1" at bus 26 [LOAD26      345.00]

 Power flow data changed for load "1" at bus 29 [LOAD29      345.00]:
 X--ORIGINAL--X  X-NEW VALUE--X  DATA ITEM
   -79.4999         34.6259      PL

 Channel output file is "./Cases/IEEE39_RE.out"

 42 diagonal and 70 off-diagonal elements

 No power flow data changed for load "1" at bus 12 [LOAD12      138.00]

 No power flow data changed for load "1" at bus 7 [LOAD7       345.00]

 No power flow data changed for load "1" at bus 8 [LOAD8       345.00]

 No power flow data changed for load "1" at bus 23 [LOAD23      345.00]

 No power flow data changed for load "1" at bus 16 [LOAD16      345.00]

 No power flow data changed for load "1" at bus 18 [LOAD18      345.00]

 No power flow data changed for load "1" at bus 26 [LOAD26      345.00]

 Power flow data changed for load "1" at bus 29 [LOAD29      345.00]:
 X--ORIGINAL--X  X-NEW VALUE--X  DATA ITEM
    34.6259         178.216      PL

 Channel output file is "./Cases/IEEE39_RE.out"

 42 diagonal and 70 off-diagonal elements

 No power flow data changed for load "1" at bus 12 [LOAD12      138.00]

 No power flow data changed for load "1" at bus 7 [LOAD7       345.00]

 No power flow data changed for load "1" at bus 8 [LOAD8       345.00]

 No power flow data changed for load "1" at bus 23 [LOAD23      345.00]

 No power flow data changed for load "1" at bus 16 [LOAD16      345.00]

 No power flow data changed for load "1" at bus 18 [LOAD18      345.00]

 No power flow data changed for load "1" at bus 26 [LOAD26      345.00]

 Power flow data changed for load "1" at bus 29 [LOAD29      345.00]:
 X--ORIGINAL--X  X-NEW VALUE--X  DATA ITEM
    178.216         168.055      PL

 Channel output file is "./Cases/IEEE39_RE.out"

 42 diagonal and 70 off-diagonal elements

 No power flow data changed for load "1" at bus 12 [LOAD12      138.00]

 No power flow data changed for load "1" at bus 7 [LOAD7       345.00]

 No power flow data changed for load "1" at bus 8 [LOAD8       345.00]

 No power flow data changed for load "1" at bus 23 [LOAD23      345.00]

 No power flow data changed for load "1" at bus 16 [LOAD16      345.00]

 No power flow data changed for load "1" at bus 18 [LOAD18      345.00]

 No power flow data changed for load "1" at bus 26 [LOAD26      345.00]

 Power flow data changed for load "1" at bus 29 [LOAD29      345.00]:
 X--ORIGINAL--X  X-NEW VALUE--X  DATA ITEM
    168.055        -9.11573      PL

 Channel output file is "./Cases/IEEE39_RE.out"

 42 diagonal and 70 off-diagonal elements

 No power flow data changed for load "1" at bus 12 [LOAD12      138.00]

 No power flow data changed for load "1" at bus 7 [LOAD7       345.00]

 No power flow data changed for load "1" at bus 8 [LOAD8       345.00]

 No power flow data changed for load "1" at bus 23 [LOAD23      345.00]

 No power flow data changed for load "1" at bus 16 [LOAD16      345.00]

 No power flow data changed for load "1" at bus 18 [LOAD18      345.00]

 No power flow data changed for load "1" at bus 26 [LOAD26      345.00]

 Power flow data changed for load "1" at bus 29 [LOAD29      345.00]:
 X--ORIGINAL--X  X-NEW VALUE--X  DATA ITEM
   -9.11573        -171.279      PL

 Channel output file is "./Cases/IEEE39_RE.out"

 42 diagonal and 70 off-diagonal elements

 No power flow data changed for load "1" at bus 12 [LOAD12      138.00]

 No power flow data changed for load "1" at bus 7 [LOAD7       345.00]

 No power flow data changed for load "1" at bus 8 [LOAD8       345.00]

 No power flow data changed for load "1" at bus 23 [LOAD23      345.00]

 No power flow data changed for load "1" at bus 16 [LOAD16      345.00]

 No power flow data changed for load "1" at bus 18 [LOAD18      345.00]

 No power flow data changed for load "1" at bus 26 [LOAD26      345.00]

 Power flow data changed for load "1" at bus 29 [LOAD29      345.00]:
 X--ORIGINAL--X  X-NEW VALUE--X  DATA ITEM
   -171.279        -168.774      PL

 Channel output file is "./Cases/IEEE39_RE.out"

 42 diagonal and 70 off-diagonal elements

 No power flow data changed for load "1" at bus 12 [LOAD12      138.00]

 No power flow data changed for load "1" at bus 7 [LOAD7       345.00]

 No power flow data changed for load "1" at bus 8 [LOAD8       345.00]

 No power flow data changed for load "1" at bus 23 [LOAD23      345.00]

 No power flow data changed for load "1" at bus 16 [LOAD16      345.00]

 No power flow data changed for load "1" at bus 18 [LOAD18      345.00]

 No power flow data changed for load "1" at bus 26 [LOAD26      345.00]

 Power flow data changed for load "1" at bus 29 [LOAD29      345.00]:
 X--ORIGINAL--X  X-NEW VALUE--X  DATA ITEM
   -168.774        -62.3863      PL

 Channel output file is "./Cases/IEEE39_RE.out"

 42 diagonal and 70 off-diagonal elements

 No power flow data changed for load "1" at bus 12 [LOAD12      138.00]

 No power flow data changed for load "1" at bus 7 [LOAD7       345.00]

 No power flow data changed for load "1" at bus 8 [LOAD8       345.00]

 No power flow data changed for load "1" at bus 23 [LOAD23      345.00]

 No power flow data changed for load "1" at bus 16 [LOAD16      345.00]

 No power flow data changed for load "1" at bus 18 [LOAD18      345.00]

 No power flow data changed for load "1" at bus 26 [LOAD26      345.00]

 Power flow data changed for load "1" at bus 29 [LOAD29      345.00]:
 X--ORIGINAL--X  X-NEW VALUE--X  DATA ITEM
   -62.3863        -26.5360      PL

 Channel output file is "./Cases/IEEE39_RE.out"

 42 diagonal and 70 off-diagonal elements

 No power flow data changed for load "1" at bus 12 [LOAD12      138.00]

 No power flow data changed for load "1" at bus 7 [LOAD7       345.00]

 No power flow data changed for load "1" at bus 8 [LOAD8       345.00]

 No power flow data changed for load "1" at bus 23 [LOAD23      345.00]

 No power flow data changed for load "1" at bus 16 [LOAD16      345.00]

 No power flow data changed for load "1" at bus 18 [LOAD18      345.00]

 No power flow data changed for load "1" at bus 26 [LOAD26      345.00]

 Power flow data changed for load "1" at bus 29 [LOAD29      345.00]:
 X--ORIGINAL--X  X-NEW VALUE--X  DATA ITEM
   -26.5360        -116.825      PL

 Channel output file is "./Cases/IEEE39_RE.out"

 42 diagonal and 70 off-diagonal elements

 No power flow data changed for load "1" at bus 12 [LOAD12      138.00]

 No power flow data changed for load "1" at bus 7 [LOAD7       345.00]

 No power flow data changed for load "1" at bus 8 [LOAD8       345.00]

 No power flow data changed for load "1" at bus 23 [LOAD23      345.00]

 No power flow data changed for load "1" at bus 16 [LOAD16      345.00]

 No power flow data changed for load "1" at bus 18 [LOAD18      345.00]

 No power flow data changed for load "1" at bus 26 [LOAD26      345.00]

 Power flow data changed for load "1" at bus 29 [LOAD29      345.00]:
 X--ORIGINAL--X  X-NEW VALUE--X  DATA ITEM
   -116.825        -210.690      PL

 Channel output file is "./Cases/IEEE39_RE.out"

 42 diagonal and 70 off-diagonal elements

 No power flow data changed for load "1" at bus 12 [LOAD12      138.00]

 No power flow data changed for load "1" at bus 7 [LOAD7       345.00]

 No power flow data changed for load "1" at bus 8 [LOAD8       345.00]

 No power flow data changed for load "1" at bus 23 [LOAD23      345.00]

 No power flow data changed for load "1" at bus 16 [LOAD16      345.00]

 No power flow data changed for load "1" at bus 18 [LOAD18      345.00]

 No power flow data changed for load "1" at bus 26 [LOAD26      345.00]

 Power flow data changed for load "1" at bus 29 [LOAD29      345.00]:
 X--ORIGINAL--X  X-NEW VALUE--X  DATA ITEM
   -210.690        -184.603      PL

 Channel output file is "./Cases/IEEE39_RE.out"

 42 diagonal and 70 off-diagonal elements

 No power flow data changed for load "1" at bus 12 [LOAD12      138.00]

 No power flow data changed for load "1" at bus 7 [LOAD7       345.00]

 No power flow data changed for load "1" at bus 8 [LOAD8       345.00]

 No power flow data changed for load "1" at bus 23 [LOAD23      345.00]

 No power flow data changed for load "1" at bus 16 [LOAD16      345.00]

 No power flow data changed for load "1" at bus 18 [LOAD18      345.00]

 No power flow data changed for load "1" at bus 26 [LOAD26      345.00]

 Power flow data changed for load "1" at bus 29 [LOAD29      345.00]:
 X--ORIGINAL--X  X-NEW VALUE--X  DATA ITEM
   -184.603        -68.0247      PL

 Channel output file is "./Cases/IEEE39_RE.out"

 42 diagonal and 70 off-diagonal elements

 No power flow data changed for load "1" at bus 12 [LOAD12      138.00]

 No power flow data changed for load "1" at bus 7 [LOAD7       345.00]

 No power flow data changed for load "1" at bus 8 [LOAD8       345.00]

 No power flow data changed for load "1" at bus 23 [LOAD23      345.00]

 No power flow data changed for load "1" at bus 16 [LOAD16      345.00]

 No power flow data changed for load "1" at bus 18 [LOAD18      345.00]

 No power flow data changed for load "1" at bus 26 [LOAD26      345.00]

 Power flow data changed for load "1" at bus 29 [LOAD29      345.00]:
 X--ORIGINAL--X  X-NEW VALUE--X  DATA ITEM
   -68.0247         26.7287      PL

 Channel output file is "./Cases/IEEE39_RE.out"

 42 diagonal and 70 off-diagonal elements

 No power flow data changed for load "1" at bus 12 [LOAD12      138.00]

 No power flow data changed for load "1" at bus 7 [LOAD7       345.00]

 No power flow data changed for load "1" at bus 8 [LOAD8       345.00]

 No power flow data changed for load "1" at bus 23 [LOAD23      345.00]

 No power flow data changed for load "1" at bus 16 [LOAD16      345.00]

 No power flow data changed for load "1" at bus 18 [LOAD18      345.00]

 No power flow data changed for load "1" at bus 26 [LOAD26      345.00]

 Power flow data changed for load "1" at bus 29 [LOAD29      345.00]:
 X--ORIGINAL--X  X-NEW VALUE--X  DATA ITEM
    26.7287         59.6321      PL

 Channel output file is "./Cases/IEEE39_RE.out"

 42 diagonal and 70 off-diagonal elements

 No power flow data changed for load "1" at bus 12 [LOAD12      138.00]

 No power flow data changed for load "1" at bus 7 [LOAD7       345.00]

 No power flow data changed for load "1" at bus 8 [LOAD8       345.00]

 No power flow data changed for load "1" at bus 23 [LOAD23      345.00]

 No power flow data changed for load "1" at bus 16 [LOAD16      345.00]

 No power flow data changed for load "1" at bus 18 [LOAD18      345.00]

 No power flow data changed for load "1" at bus 26 [LOAD26      345.00]

 Power flow data changed for load "1" at bus 29 [LOAD29      345.00]:
 X--ORIGINAL--X  X-NEW VALUE--X  DATA ITEM
    59.6321         72.3400      PL

 Channel output file is "./Cases/IEEE39_RE.out"

 42 diagonal and 70 off-diagonal elements

 No power flow data changed for load "1" at bus 12 [LOAD12      138.00]

 No power flow data changed for load "1" at bus 7 [LOAD7       345.00]

 No power flow data changed for load "1" at bus 8 [LOAD8       345.00]

 No power flow data changed for load "1" at bus 23 [LOAD23      345.00]

 No power flow data changed for load "1" at bus 16 [LOAD16      345.00]

 No power flow data changed for load "1" at bus 18 [LOAD18      345.00]

 No power flow data changed for load "1" at bus 26 [LOAD26      345.00]

 Power flow data changed for load "1" at bus 29 [LOAD29      345.00]:
 X--ORIGINAL--X  X-NEW VALUE--X  DATA ITEM
    72.3400         83.1777      PL

 Channel output file is "./Cases/IEEE39_RE.out"

 42 diagonal and 70 off-diagonal elements

 No power flow data changed for load "1" at bus 12 [LOAD12      138.00]

 No power flow data changed for load "1" at bus 7 [LOAD7       345.00]

 No power flow data changed for load "1" at bus 8 [LOAD8       345.00]

 No power flow data changed for load "1" at bus 23 [LOAD23      345.00]

 No power flow data changed for load "1" at bus 16 [LOAD16      345.00]

 No power flow data changed for load "1" at bus 18 [LOAD18      345.00]

 No power flow data changed for load "1" at bus 26 [LOAD26      345.00]

 Power flow data changed for load "1" at bus 29 [LOAD29      345.00]:
 X--ORIGINAL--X  X-NEW VALUE--X  DATA ITEM
    83.1777         55.7216      PL

 Channel output file is "./Cases/IEEE39_RE.out"

 42 diagonal and 70 off-diagonal elements

 No power flow data changed for load "1" at bus 12 [LOAD12      138.00]

 No power flow data changed for load "1" at bus 7 [LOAD7       345.00]

 No power flow data changed for load "1" at bus 8 [LOAD8       345.00]

 No power flow data changed for load "1" at bus 23 [LOAD23      345.00]

 No power flow data changed for load "1" at bus 16 [LOAD16      345.00]

 No power flow data changed for load "1" at bus 18 [LOAD18      345.00]

 No power flow data changed for load "1" at bus 26 [LOAD26      345.00]

 Power flow data changed for load "1" at bus 29 [LOAD29      345.00]:
 X--ORIGINAL--X  X-NEW VALUE--X  DATA ITEM
    55.7216        -35.1603      PL

 Channel output file is "./Cases/IEEE39_RE.out"

 42 diagonal and 70 off-diagonal elements

 No power flow data changed for load "1" at bus 12 [LOAD12      138.00]

 No power flow data changed for load "1" at bus 7 [LOAD7       345.00]

 No power flow data changed for load "1" at bus 8 [LOAD8       345.00]

 No power flow data changed for load "1" at bus 23 [LOAD23      345.00]

 No power flow data changed for load "1" at bus 16 [LOAD16      345.00]

 No power flow data changed for load "1" at bus 18 [LOAD18      345.00]

 No power flow data changed for load "1" at bus 26 [LOAD26      345.00]

 Power flow data changed for load "1" at bus 29 [LOAD29      345.00]:
 X--ORIGINAL--X  X-NEW VALUE--X  DATA ITEM
   -35.1603        -164.756      PL

 Channel output file is "./Cases/IEEE39_RE.out"

 42 diagonal and 70 off-diagonal elements

 No power flow data changed for load "1" at bus 12 [LOAD12      138.00]

 No power flow data changed for load "1" at bus 7 [LOAD7       345.00]

 No power flow data changed for load "1" at bus 8 [LOAD8       345.00]

 No power flow data changed for load "1" at bus 23 [LOAD23      345.00]

 No power flow data changed for load "1" at bus 16 [LOAD16      345.00]

 No power flow data changed for load "1" at bus 18 [LOAD18      345.00]

 No power flow data changed for load "1" at bus 26 [LOAD26      345.00]

 Power flow data changed for load "1" at bus 29 [LOAD29      345.00]:
 X--ORIGINAL--X  X-NEW VALUE--X  DATA ITEM
   -164.756        -280.627      PL

 Channel output file is "./Cases/IEEE39_RE.out"

 42 diagonal and 70 off-diagonal elements

 No power flow data changed for load "1" at bus 12 [LOAD12      138.00]

 No power flow data changed for load "1" at bus 7 [LOAD7       345.00]

 No power flow data changed for load "1" at bus 8 [LOAD8       345.00]

 No power flow data changed for load "1" at bus 23 [LOAD23      345.00]

 No power flow data changed for load "1" at bus 16 [LOAD16      345.00]

 No power flow data changed for load "1" at bus 18 [LOAD18      345.00]

 No power flow data changed for load "1" at bus 26 [LOAD26      345.00]

 Power flow data changed for load "1" at bus 29 [LOAD29      345.00]:
 X--ORIGINAL--X  X-NEW VALUE--X  DATA ITEM
   -280.627        -320.386      PL

 Channel output file is "./Cases/IEEE39_RE.out"

 42 diagonal and 70 off-diagonal elements

 No power flow data changed for load "1" at bus 12 [LOAD12      138.00]

 No power flow data changed for load "1" at bus 7 [LOAD7       345.00]

 No power flow data changed for load "1" at bus 8 [LOAD8       345.00]

 No power flow data changed for load "1" at bus 23 [LOAD23      345.00]

 No power flow data changed for load "1" at bus 16 [LOAD16      345.00]

 No power flow data changed for load "1" at bus 18 [LOAD18      345.00]

 No power flow data changed for load "1" at bus 26 [LOAD26      345.00]

 Power flow data changed for load "1" at bus 29 [LOAD29      345.00]:
 X--ORIGINAL--X  X-NEW VALUE--X  DATA ITEM
   -320.386        -229.426      PL

 Channel output file is "./Cases/IEEE39_RE.out"

 42 diagonal and 70 off-diagonal elements

 No power flow data changed for load "1" at bus 12 [LOAD12      138.00]

 No power flow data changed for load "1" at bus 7 [LOAD7       345.00]

 No power flow data changed for load "1" at bus 8 [LOAD8       345.00]

 No power flow data changed for load "1" at bus 23 [LOAD23      345.00]

 No power flow data changed for load "1" at bus 16 [LOAD16      345.00]

 No power flow data changed for load "1" at bus 18 [LOAD18      345.00]

 No power flow data changed for load "1" at bus 26 [LOAD26      345.00]

 Power flow data changed for load "1" at bus 29 [LOAD29      345.00]:
 X--ORIGINAL--X  X-NEW VALUE--X  DATA ITEM
   -229.426        -21.6156      PL

 Channel output file is "./Cases/IEEE39_RE.out"

 42 diagonal and 70 off-diagonal elements

 No power flow data changed for load "1" at bus 12 [LOAD12      138.00]

 No power flow data changed for load "1" at bus 7 [LOAD7       345.00]

 No power flow data changed for load "1" at bus 8 [LOAD8       345.00]

 No power flow data changed for load "1" at bus 23 [LOAD23      345.00]

 No power flow data changed for load "1" at bus 16 [LOAD16      345.00]

 No power flow data changed for load "1" at bus 18 [LOAD18      345.00]

 No power flow data changed for load "1" at bus 26 [LOAD26      345.00]

 Power flow data changed for load "1" at bus 29 [LOAD29      345.00]:
 X--ORIGINAL--X  X-NEW VALUE--X  DATA ITEM
   -21.6156         183.737      PL

 Channel output file is "./Cases/IEEE39_RE.out"

 42 diagonal and 70 off-diagonal elements

 No power flow data changed for load "1" at bus 12 [LOAD12      138.00]

 No power flow data changed for load "1" at bus 7 [LOAD7       345.00]

 No power flow data changed for load "1" at bus 8 [LOAD8       345.00]

 No power flow data changed for load "1" at bus 23 [LOAD23      345.00]

 No power flow data changed for load "1" at bus 16 [LOAD16      345.00]

 No power flow data changed for load "1" at bus 18 [LOAD18      345.00]

 No power flow data changed for load "1" at bus 26 [LOAD26      345.00]

 Power flow data changed for load "1" at bus 29 [LOAD29      345.00]:
 X--ORIGINAL--X  X-NEW VALUE--X  DATA ITEM
    183.737         245.981      PL

 Channel output file is "./Cases/IEEE39_RE.out"

 42 diagonal and 70 off-diagonal elements

 No power flow data changed for load "1" at bus 12 [LOAD12      138.00]

 No power flow data changed for load "1" at bus 7 [LOAD7       345.00]

 No power flow data changed for load "1" at bus 8 [LOAD8       345.00]

 No power flow data changed for load "1" at bus 23 [LOAD23      345.00]

 No power flow data changed for load "1" at bus 16 [LOAD16      345.00]

 No power flow data changed for load "1" at bus 18 [LOAD18      345.00]

 No power flow data changed for load "1" at bus 26 [LOAD26      345.00]

 Power flow data changed for load "1" at bus 29 [LOAD29      345.00]:
 X--ORIGINAL--X  X-NEW VALUE--X  DATA ITEM
    245.981         140.376      PL

 Channel output file is "./Cases/IEEE39_RE.out"

 42 diagonal and 70 off-diagonal elements

 No power flow data changed for load "1" at bus 12 [LOAD12      138.00]

 No power flow data changed for load "1" at bus 7 [LOAD7       345.00]

 No power flow data changed for load "1" at bus 8 [LOAD8       345.00]

 No power flow data changed for load "1" at bus 23 [LOAD23      345.00]

 No power flow data changed for load "1" at bus 16 [LOAD16      345.00]

 No power flow data changed for load "1" at bus 18 [LOAD18      345.00]

 No power flow data changed for load "1" at bus 26 [LOAD26      345.00]

 Power flow data changed for load "1" at bus 29 [LOAD29      345.00]:
 X--ORIGINAL--X  X-NEW VALUE--X  DATA ITEM
    140.376        -19.2258      PL

 Channel output file is "./Cases/IEEE39_RE.out"

 42 diagonal and 70 off-diagonal elements

 No power flow data changed for load "1" at bus 12 [LOAD12      138.00]

 No power flow data changed for load "1" at bus 7 [LOAD7       345.00]

 No power flow data changed for load "1" at bus 8 [LOAD8       345.00]

 No power flow data changed for load "1" at bus 23 [LOAD23      345.00]

 No power flow data changed for load "1" at bus 16 [LOAD16      345.00]

 No power flow data changed for load "1" at bus 18 [LOAD18      345.00]

 No power flow data changed for load "1" at bus 26 [LOAD26      345.00]

 Power flow data changed for load "1" at bus 29 [LOAD29      345.00]:
 X--ORIGINAL--X  X-NEW VALUE--X  DATA ITEM
   -19.2258        -99.0100      PL

 Channel output file is "./Cases/IEEE39_RE.out"

 42 diagonal and 70 off-diagonal elements

 No power flow data changed for load "1" at bus 12 [LOAD12      138.00]

 No power flow data changed for load "1" at bus 7 [LOAD7       345.00]

 No power flow data changed for load "1" at bus 8 [LOAD8       345.00]

 No power flow data changed for load "1" at bus 23 [LOAD23      345.00]

 No power flow data changed for load "1" at bus 16 [LOAD16      345.00]

 No power flow data changed for load "1" at bus 18 [LOAD18      345.00]

 No power flow data changed for load "1" at bus 26 [LOAD26      345.00]

 Power flow data changed for load "1" at bus 29 [LOAD29      345.00]:
 X--ORIGINAL--X  X-NEW VALUE--X  DATA ITEM
   -99.0100        -65.9907      PL

 Channel output file is "./Cases/IEEE39_RE.out"

 42 diagonal and 70 off-diagonal elements

 No power flow data changed for load "1" at bus 12 [LOAD12      138.00]

 No power flow data changed for load "1" at bus 7 [LOAD7       345.00]

 No power flow data changed for load "1" at bus 8 [LOAD8       345.00]

 No power flow data changed for load "1" at bus 23 [LOAD23      345.00]

 No power flow data changed for load "1" at bus 16 [LOAD16      345.00]

 No power flow data changed for load "1" at bus 18 [LOAD18      345.00]

 No power flow data changed for load "1" at bus 26 [LOAD26      345.00]

 Power flow data changed for load "1" at bus 29 [LOAD29      345.00]:
 X--ORIGINAL--X  X-NEW VALUE--X  DATA ITEM
   -65.9907         6.28676      PL

 Channel output file is "./Cases/IEEE39_RE.out"

 42 diagonal and 70 off-diagonal elements

 No power flow data changed for load "1" at bus 12 [LOAD12      138.00]

 No power flow data changed for load "1" at bus 7 [LOAD7       345.00]

 No power flow data changed for load "1" at bus 8 [LOAD8       345.00]

 No power flow data changed for load "1" at bus 23 [LOAD23      345.00]

 No power flow data changed for load "1" at bus 16 [LOAD16      345.00]

 No power flow data changed for load "1" at bus 18 [LOAD18      345.00]

 No power flow data changed for load "1" at bus 26 [LOAD26      345.00]

 Power flow data changed for load "1" at bus 29 [LOAD29      345.00]:
 X--ORIGINAL--X  X-NEW VALUE--X  DATA ITEM
    6.28676         36.0504      PL

 Channel output file is "./Cases/IEEE39_RE.out"

 42 diagonal and 70 off-diagonal elements

 No power flow data changed for load "1" at bus 12 [LOAD12      138.00]

 No power flow data changed for load "1" at bus 7 [LOAD7       345.00]

 No power flow data changed for load "1" at bus 8 [LOAD8       345.00]

 No power flow data changed for load "1" at bus 23 [LOAD23      345.00]

 No power flow data changed for load "1" at bus 16 [LOAD16      345.00]

 No power flow data changed for load "1" at bus 18 [LOAD18      345.00]

 No power flow data changed for load "1" at bus 26 [LOAD26      345.00]

 Power flow data changed for load "1" at bus 29 [LOAD29      345.00]:
 X--ORIGINAL--X  X-NEW VALUE--X  DATA ITEM
    36.0504         28.5614      PL

 Channel output file is "./Cases/IEEE39_RE.out"

 42 diagonal and 70 off-diagonal elements

 No power flow data changed for load "1" at bus 12 [LOAD12      138.00]

 No power flow data changed for load "1" at bus 7 [LOAD7       345.00]

 No power flow data changed for load "1" at bus 8 [LOAD8       345.00]

 No power flow data changed for load "1" at bus 23 [LOAD23      345.00]

 No power flow data changed for load "1" at bus 16 [LOAD16      345.00]

 No power flow data changed for load "1" at bus 18 [LOAD18      345.00]

 No power flow data changed for load "1" at bus 26 [LOAD26      345.00]

 Power flow data changed for load "1" at bus 29 [LOAD29      345.00]:
 X--ORIGINAL--X  X-NEW VALUE--X  DATA ITEM
    28.5614         54.8770      PL

 Channel output file is "./Cases/IEEE39_RE.out"

 42 diagonal and 70 off-diagonal elements

 No power flow data changed for load "1" at bus 12 [LOAD12      138.00]

 No power flow data changed for load "1" at bus 7 [LOAD7       345.00]

 No power flow data changed for load "1" at bus 8 [LOAD8       345.00]

 No power flow data changed for load "1" at bus 23 [LOAD23      345.00]

 No power flow data changed for load "1" at bus 16 [LOAD16      345.00]

 No power flow data changed for load "1" at bus 18 [LOAD18      345.00]

 No power flow data changed for load "1" at bus 26 [LOAD26      345.00]

 Power flow data changed for load "1" at bus 29 [LOAD29      345.00]:
 X--ORIGINAL--X  X-NEW VALUE--X  DATA ITEM
    54.8770         129.801      PL

 Channel output file is "./Cases/IEEE39_RE.out"

 42 diagonal and 70 off-diagonal elements

 No power flow data changed for load "1" at bus 12 [LOAD12      138.00]

 No power flow data changed for load "1" at bus 7 [LOAD7       345.00]

 No power flow data changed for load "1" at bus 8 [LOAD8       345.00]

 No power flow data changed for load "1" at bus 23 [LOAD23      345.00]

 No power flow data changed for load "1" at bus 16 [LOAD16      345.00]

 No power flow data changed for load "1" at bus 18 [LOAD18      345.00]

 No power flow data changed for load "1" at bus 26 [LOAD26      345.00]

 Power flow data changed for load "1" at bus 29 [LOAD29      345.00]:
 X--ORIGINAL--X  X-NEW VALUE--X  DATA ITEM
    129.801         162.174      PL

 Channel output file is "./Cases/IEEE39_RE.out"

 42 diagonal and 70 off-diagonal elements
 LTC DELAY TIMER STARTED AT                24 LOAD24       345.00 1  V= 0.9999 AT TIME=   3.848
 LTC DELAY TIMER STARTED AT                15 LOAD15       345.00 1  V= 1.0000 AT TIME=   3.900

 No power flow data changed for load "1" at bus 12 [LOAD12      138.00]

 No power flow data changed for load "1" at bus 7 [LOAD7       345.00]

 No power flow data changed for load "1" at bus 8 [LOAD8       345.00]

 No power flow data changed for load "1" at bus 23 [LOAD23      345.00]

 No power flow data changed for load "1" at bus 16 [LOAD16      345.00]

 No power flow data changed for load "1" at bus 18 [LOAD18      345.00]

 No power flow data changed for load "1" at bus 26 [LOAD26      345.00]

 Power flow data changed for load "1" at bus 29 [LOAD29      345.00]:
 X--ORIGINAL--X  X-NEW VALUE--X  DATA ITEM
    162.174         78.7061      PL

 Channel output file is "./Cases/IEEE39_RE.out"

 42 diagonal and 70 off-diagonal elements
     LTC DELAY TIMER RESET
 LTC DELAY TIMER STARTED AT                15 LOAD15       345.00 1  V= 1.0000 AT TIME=   3.902

 No power flow data changed for load "1" at bus 12 [LOAD12      138.00]

 No power flow data changed for load "1" at bus 7 [LOAD7       345.00]

 No power flow data changed for load "1" at bus 8 [LOAD8       345.00]

 No power flow data changed for load "1" at bus 23 [LOAD23      345.00]

 No power flow data changed for load "1" at bus 16 [LOAD16      345.00]

 No power flow data changed for load "1" at bus 18 [LOAD18      345.00]

 No power flow data changed for load "1" at bus 26 [LOAD26      345.00]

 Power flow data changed for load "1" at bus 29 [LOAD29      345.00]:
 X--ORIGINAL--X  X-NEW VALUE--X  DATA ITEM
    78.7061        -40.4693      PL

 Channel output file is "./Cases/IEEE39_RE.out"

 42 diagonal and 70 off-diagonal elements

 No power flow data changed for load "1" at bus 12 [LOAD12      138.00]

 No power flow data changed for load "1" at bus 7 [LOAD7       345.00]

 No power flow data changed for load "1" at bus 8 [LOAD8       345.00]

 No power flow data changed for load "1" at bus 23 [LOAD23      345.00]

 No power flow data changed for load "1" at bus 16 [LOAD16      345.00]

 No power flow data changed for load "1" at bus 18 [LOAD18      345.00]

 No power flow data changed for load "1" at bus 26 [LOAD26      345.00]

 Power flow data changed for load "1" at bus 29 [LOAD29      345.00]:
 X--ORIGINAL--X  X-NEW VALUE--X  DATA ITEM
   -40.4693        -30.3473      PL

 Channel output file is "./Cases/IEEE39_RE.out"

 42 diagonal and 70 off-diagonal elements

 No power flow data changed for load "1" at bus 12 [LOAD12      138.00]

 No power flow data changed for load "1" at bus 7 [LOAD7       345.00]

 No power flow data changed for load "1" at bus 8 [LOAD8       345.00]

 No power flow data changed for load "1" at bus 23 [LOAD23      345.00]

 No power flow data changed for load "1" at bus 16 [LOAD16      345.00]

 No power flow data changed for load "1" at bus 18 [LOAD18      345.00]

 No power flow data changed for load "1" at bus 26 [LOAD26      345.00]

 Power flow data changed for load "1" at bus 29 [LOAD29      345.00]:
 X--ORIGINAL--X  X-NEW VALUE--X  DATA ITEM
   -30.3473         148.329      PL

 Channel output file is "./Cases/IEEE39_RE.out"

 42 diagonal and 70 off-diagonal elements

 No power flow data changed for load "1" at bus 12 [LOAD12      138.00]

 No power flow data changed for load "1" at bus 7 [LOAD7       345.00]

 No power flow data changed for load "1" at bus 8 [LOAD8       345.00]

 No power flow data changed for load "1" at bus 23 [LOAD23      345.00]

 No power flow data changed for load "1" at bus 16 [LOAD16      345.00]

 No power flow data changed for load "1" at bus 18 [LOAD18      345.00]

 No power flow data changed for load "1" at bus 26 [LOAD26      345.00]

 Power flow data changed for load "1" at bus 29 [LOAD29      345.00]:
 X--ORIGINAL--X  X-NEW VALUE--X  DATA ITEM
    148.329         331.070      PL

 Channel output file is "./Cases/IEEE39_RE.out"

 42 diagonal and 70 off-diagonal elements

 No power flow data changed for load "1" at bus 12 [LOAD12      138.00]

 No power flow data changed for load "1" at bus 7 [LOAD7       345.00]

 No power flow data changed for load "1" at bus 8 [LOAD8       345.00]

 No power flow data changed for load "1" at bus 23 [LOAD23      345.00]

 No power flow data changed for load "1" at bus 16 [LOAD16      345.00]

 No power flow data changed for load "1" at bus 18 [LOAD18      345.00]

 No power flow data changed for load "1" at bus 26 [LOAD26      345.00]

 Power flow data changed for load "1" at bus 29 [LOAD29      345.00]:
 X--ORIGINAL--X  X-NEW VALUE--X  DATA ITEM
    331.070         322.561      PL

 Channel output file is "./Cases/IEEE39_RE.out"

 42 diagonal and 70 off-diagonal elements
     LTC DELAY TIMER RESET

 No power flow data changed for load "1" at bus 12 [LOAD12      138.00]

 No power flow data changed for load "1" at bus 7 [LOAD7       345.00]

 No power flow data changed for load "1" at bus 8 [LOAD8       345.00]

 No power flow data changed for load "1" at bus 23 [LOAD23      345.00]

 No power flow data changed for load "1" at bus 16 [LOAD16      345.00]

 No power flow data changed for load "1" at bus 18 [LOAD18      345.00]

 No power flow data changed for load "1" at bus 26 [LOAD26      345.00]

 Power flow data changed for load "1" at bus 29 [LOAD29      345.00]:
 X--ORIGINAL--X  X-NEW VALUE--X  DATA ITEM
    322.561         126.169      PL

 Channel output file is "./Cases/IEEE39_RE.out"

 42 diagonal and 70 off-diagonal elements
     LTC DELAY TIMER RESET

 No power flow data changed for load "1" at bus 12 [LOAD12      138.00]

 No power flow data changed for load "1" at bus 7 [LOAD7       345.00]

 No power flow data changed for load "1" at bus 8 [LOAD8       345.00]

 No power flow data changed for load "1" at bus 23 [LOAD23      345.00]

 No power flow data changed for load "1" at bus 16 [LOAD16      345.00]

 No power flow data changed for load "1" at bus 18 [LOAD18      345.00]

 No power flow data changed for load "1" at bus 26 [LOAD26      345.00]

 Power flow data changed for load "1" at bus 29 [LOAD29      345.00]:
 X--ORIGINAL--X  X-NEW VALUE--X  DATA ITEM
    126.169        -46.0976      PL

 Channel output file is "./Cases/IEEE39_RE.out"

 42 diagonal and 70 off-diagonal elements
 LTC DELAY TIMER STARTED AT                24 LOAD24       345.00 1  V= 1.0000 AT TIME=   4.648

 No power flow data changed for load "1" at bus 12 [LOAD12      138.00]

 No power flow data changed for load "1" at bus 7 [LOAD7       345.00]

 No power flow data changed for load "1" at bus 8 [LOAD8       345.00]

 No power flow data changed for load "1" at bus 23 [LOAD23      345.00]

 No power flow data changed for load "1" at bus 16 [LOAD16      345.00]

 No power flow data changed for load "1" at bus 18 [LOAD18      345.00]

 No power flow data changed for load "1" at bus 26 [LOAD26      345.00]

 Power flow data changed for load "1" at bus 29 [LOAD29      345.00]:
 X--ORIGINAL--X  X-NEW VALUE--X  DATA ITEM
   -46.0976        -12.6734      PL

 Channel output file is "./Cases/IEEE39_RE.out"

 42 diagonal and 70 off-diagonal elements
 LTC DELAY TIMER STARTED AT                15 LOAD15       345.00 1  V= 1.0000 AT TIME=   4.726

 No power flow data changed for load "1" at bus 12 [LOAD12      138.00]

 No power flow data changed for load "1" at bus 7 [LOAD7       345.00]

 No power flow data changed for load "1" at bus 8 [LOAD8       345.00]

 No power flow data changed for load "1" at bus 23 [LOAD23      345.00]

 No power flow data changed for load "1" at bus 16 [LOAD16      345.00]

 No power flow data changed for load "1" at bus 18 [LOAD18      345.00]

 No power flow data changed for load "1" at bus 26 [LOAD26      345.00]

 Power flow data changed for load "1" at bus 29 [LOAD29      345.00]:
 X--ORIGINAL--X  X-NEW VALUE--X  DATA ITEM
   -12.6734         164.629      PL

 Channel output file is "./Cases/IEEE39_RE.out"

 42 diagonal and 70 off-diagonal elements

 No power flow data changed for load "1" at bus 12 [LOAD12      138.00]

 No power flow data changed for load "1" at bus 7 [LOAD7       345.00]

 No power flow data changed for load "1" at bus 8 [LOAD8       345.00]

 No power flow data changed for load "1" at bus 23 [LOAD23      345.00]

 No power flow data changed for load "1" at bus 16 [LOAD16      345.00]

 No power flow data changed for load "1" at bus 18 [LOAD18      345.00]

 No power flow data changed for load "1" at bus 26 [LOAD26      345.00]

 Power flow data changed for load "1" at bus 29 [LOAD29      345.00]:
 X--ORIGINAL--X  X-NEW VALUE--X  DATA ITEM
    164.629         258.857      PL

 Channel output file is "./Cases/IEEE39_RE.out"

 42 diagonal and 70 off-diagonal elements

 No power flow data changed for load "1" at bus 12 [LOAD12      138.00]

 No power flow data changed for load "1" at bus 7 [LOAD7       345.00]

 No power flow data changed for load "1" at bus 8 [LOAD8       345.00]

 No power flow data changed for load "1" at bus 23 [LOAD23      345.00]

 No power flow data changed for load "1" at bus 16 [LOAD16      345.00]

 No power flow data changed for load "1" at bus 18 [LOAD18      345.00]

 No power flow data changed for load "1" at bus 26 [LOAD26      345.00]

 Power flow data changed for load "1" at bus 29 [LOAD29      345.00]:
 X--ORIGINAL--X  X-NEW VALUE--X  DATA ITEM
    258.857         156.762      PL

 Channel output file is "./Cases/IEEE39_RE.out"

 42 diagonal and 70 off-diagonal elements

 No power flow data changed for load "1" at bus 12 [LOAD12      138.00]

 No power flow data changed for load "1" at bus 7 [LOAD7       345.00]

 No power flow data changed for load "1" at bus 8 [LOAD8       345.00]

 No power flow data changed for load "1" at bus 23 [LOAD23      345.00]

 No power flow data changed for load "1" at bus 16 [LOAD16      345.00]

 No power flow data changed for load "1" at bus 18 [LOAD18      345.00]

 No power flow data changed for load "1" at bus 26 [LOAD26      345.00]

 Power flow data changed for load "1" at bus 29 [LOAD29      345.00]:
 X--ORIGINAL--X  X-NEW VALUE--X  DATA ITEM
    156.762        -13.4483      PL

 Channel output file is "./Cases/IEEE39_RE.out"

 42 diagonal and 70 off-diagonal elements

 No power flow data changed for load "1" at bus 12 [LOAD12      138.00]

 No power flow data changed for load "1" at bus 7 [LOAD7       345.00]

 No power flow data changed for load "1" at bus 8 [LOAD8       345.00]

 No power flow data changed for load "1" at bus 23 [LOAD23      345.00]

 No power flow data changed for load "1" at bus 16 [LOAD16      345.00]

 No power flow data changed for load "1" at bus 18 [LOAD18      345.00]

 No power flow data changed for load "1" at bus 26 [LOAD26      345.00]

 Power flow data changed for load "1" at bus 29 [LOAD29      345.00]:
 X--ORIGINAL--X  X-NEW VALUE--X  DATA ITEM
   -13.4483        -62.6072      PL

 Channel output file is "./Cases/IEEE39_RE.out"

 42 diagonal and 70 off-diagonal elements

 No power flow data changed for load "1" at bus 12 [LOAD12      138.00]

 No power flow data changed for load "1" at bus 7 [LOAD7       345.00]

 No power flow data changed for load "1" at bus 8 [LOAD8       345.00]

 No power flow data changed for load "1" at bus 23 [LOAD23      345.00]

 No power flow data changed for load "1" at bus 16 [LOAD16      345.00]

 No power flow data changed for load "1" at bus 18 [LOAD18      345.00]

 No power flow data changed for load "1" at bus 26 [LOAD26      345.00]

 Power flow data changed for load "1" at bus 29 [LOAD29      345.00]:
 X--ORIGINAL--X  X-NEW VALUE--X  DATA ITEM
   -62.6072         15.0016      PL

 Channel output file is "./Cases/IEEE39_RE.out"

 42 diagonal and 70 off-diagonal elements

 No power flow data changed for load "1" at bus 12 [LOAD12      138.00]

 No power flow data changed for load "1" at bus 7 [LOAD7       345.00]

 No power flow data changed for load "1" at bus 8 [LOAD8       345.00]

 No power flow data changed for load "1" at bus 23 [LOAD23      345.00]

 No power flow data changed for load "1" at bus 16 [LOAD16      345.00]

 No power flow data changed for load "1" at bus 18 [LOAD18      345.00]

 No power flow data changed for load "1" at bus 26 [LOAD26      345.00]

 Power flow data changed for load "1" at bus 29 [LOAD29      345.00]:
 X--ORIGINAL--X  X-NEW VALUE--X  DATA ITEM
    15.0016         52.4873      PL

 Channel output file is "./Cases/IEEE39_RE.out"

 42 diagonal and 70 off-diagonal elements
     LTC DELAY TIMER RESET

 No power flow data changed for load "1" at bus 12 [LOAD12      138.00]

 No power flow data changed for load "1" at bus 7 [LOAD7       345.00]

 No power flow data changed for load "1" at bus 8 [LOAD8       345.00]

 No power flow data changed for load "1" at bus 23 [LOAD23      345.00]

 No power flow data changed for load "1" at bus 16 [LOAD16      345.00]

 No power flow data changed for load "1" at bus 18 [LOAD18      345.00]

 No power flow data changed for load "1" at bus 26 [LOAD26      345.00]

 Power flow data changed for load "1" at bus 29 [LOAD29      345.00]:
 X--ORIGINAL--X  X-NEW VALUE--X  DATA ITEM
    52.4873        -48.1211      PL

 Channel output file is "./Cases/IEEE39_RE.out"

 42 diagonal and 70 off-diagonal elements
     LTC DELAY TIMER RESET

 No power flow data changed for load "1" at bus 12 [LOAD12      138.00]

 No power flow data changed for load "1" at bus 7 [LOAD7       345.00]

 No power flow data changed for load "1" at bus 8 [LOAD8       345.00]

 No power flow data changed for load "1" at bus 23 [LOAD23      345.00]

 No power flow data changed for load "1" at bus 16 [LOAD16      345.00]

 No power flow data changed for load "1" at bus 18 [LOAD18      345.00]

 No power flow data changed for load "1" at bus 26 [LOAD26      345.00]

 Power flow data changed for load "1" at bus 29 [LOAD29      345.00]:
 X--ORIGINAL--X  X-NEW VALUE--X  DATA ITEM
   -48.1211        -169.795      PL

 Channel output file is "./Cases/IEEE39_RE.out"

 42 diagonal and 70 off-diagonal elements

 No power flow data changed for load "1" at bus 12 [LOAD12      138.00]

 No power flow data changed for load "1" at bus 7 [LOAD7       345.00]

 No power flow data changed for load "1" at bus 8 [LOAD8       345.00]

 No power flow data changed for load "1" at bus 23 [LOAD23      345.00]

 No power flow data changed for load "1" at bus 16 [LOAD16      345.00]

 No power flow data changed for load "1" at bus 18 [LOAD18      345.00]

 No power flow data changed for load "1" at bus 26 [LOAD26      345.00]

 Power flow data changed for load "1" at bus 29 [LOAD29      345.00]:
 X--ORIGINAL--X  X-NEW VALUE--X  DATA ITEM
   -169.795        -122.862      PL

 Channel output file is "./Cases/IEEE39_RE.out"

 42 diagonal and 70 off-diagonal elements

 No power flow data changed for load "1" at bus 12 [LOAD12      138.00]

 No power flow data changed for load "1" at bus 7 [LOAD7       345.00]

 No power flow data changed for load "1" at bus 8 [LOAD8       345.00]

 No power flow data changed for load "1" at bus 23 [LOAD23      345.00]

 No power flow data changed for load "1" at bus 16 [LOAD16      345.00]

 No power flow data changed for load "1" at bus 18 [LOAD18      345.00]

 No power flow data changed for load "1" at bus 26 [LOAD26      345.00]

 Power flow data changed for load "1" at bus 29 [LOAD29      345.00]:
 X--ORIGINAL--X  X-NEW VALUE--X  DATA ITEM
   -122.862         109.190      PL

 Channel output file is "./Cases/IEEE39_RE.out"

 42 diagonal and 70 off-diagonal elements

 No power flow data changed for load "1" at bus 12 [LOAD12      138.00]

 No power flow data changed for load "1" at bus 7 [LOAD7       345.00]

 No power flow data changed for load "1" at bus 8 [LOAD8       345.00]

 No power flow data changed for load "1" at bus 23 [LOAD23      345.00]

 No power flow data changed for load "1" at bus 16 [LOAD16      345.00]

 No power flow data changed for load "1" at bus 18 [LOAD18      345.00]

 No power flow data changed for load "1" at bus 26 [LOAD26      345.00]

 Power flow data changed for load "1" at bus 29 [LOAD29      345.00]:
 X--ORIGINAL--X  X-NEW VALUE--X  DATA ITEM
    109.190         328.996      PL

 Channel output file is "./Cases/IEEE39_RE.out"

 42 diagonal and 70 off-diagonal elements

 No power flow data changed for load "1" at bus 12 [LOAD12      138.00]

 No power flow data changed for load "1" at bus 7 [LOAD7       345.00]

 No power flow data changed for load "1" at bus 8 [LOAD8       345.00]

 No power flow data changed for load "1" at bus 23 [LOAD23      345.00]

 No power flow data changed for load "1" at bus 16 [LOAD16      345.00]

 No power flow data changed for load "1" at bus 18 [LOAD18      345.00]

 No power flow data changed for load "1" at bus 26 [LOAD26      345.00]

 Power flow data changed for load "1" at bus 29 [LOAD29      345.00]:
 X--ORIGINAL--X  X-NEW VALUE--X  DATA ITEM
    328.996         333.249      PL

 Channel output file is "./Cases/IEEE39_RE.out"

 42 diagonal and 70 off-diagonal elements

 No power flow data changed for load "1" at bus 12 [LOAD12      138.00]

 No power flow data changed for load "1" at bus 7 [LOAD7       345.00]

 No power flow data changed for load "1" at bus 8 [LOAD8       345.00]

 No power flow data changed for load "1" at bus 23 [LOAD23      345.00]

 No power flow data changed for load "1" at bus 16 [LOAD16      345.00]

 No power flow data changed for load "1" at bus 18 [LOAD18      345.00]

 No power flow data changed for load "1" at bus 26 [LOAD26      345.00]

 Power flow data changed for load "1" at bus 29 [LOAD29      345.00]:
 X--ORIGINAL--X  X-NEW VALUE--X  DATA ITEM
    333.249         123.873      PL

 Channel output file is "./Cases/IEEE39_RE.out"

 42 diagonal and 70 off-diagonal elements

 No power flow data changed for load "1" at bus 12 [LOAD12      138.00]

 No power flow data changed for load "1" at bus 7 [LOAD7       345.00]

 No power flow data changed for load "1" at bus 8 [LOAD8       345.00]

 No power flow data changed for load "1" at bus 23 [LOAD23      345.00]

 No power flow data changed for load "1" at bus 16 [LOAD16      345.00]

 No power flow data changed for load "1" at bus 18 [LOAD18      345.00]

 No power flow data changed for load "1" at bus 26 [LOAD26      345.00]

 Power flow data changed for load "1" at bus 29 [LOAD29      345.00]:
 X--ORIGINAL--X  X-NEW VALUE--X  DATA ITEM
    123.873        -100.947      PL

 Channel output file is "./Cases/IEEE39_RE.out"

 42 diagonal and 70 off-diagonal elements

 No power flow data changed for load "1" at bus 12 [LOAD12      138.00]

 No power flow data changed for load "1" at bus 7 [LOAD7       345.00]

 No power flow data changed for load "1" at bus 8 [LOAD8       345.00]

 No power flow data changed for load "1" at bus 23 [LOAD23      345.00]

 No power flow data changed for load "1" at bus 16 [LOAD16      345.00]

 No power flow data changed for load "1" at bus 18 [LOAD18      345.00]

 No power flow data changed for load "1" at bus 26 [LOAD26      345.00]

 Power flow data changed for load "1" at bus 29 [LOAD29      345.00]:
 X--ORIGINAL--X  X-NEW VALUE--X  DATA ITEM
   -100.947        -147.387      PL

 Channel output file is "./Cases/IEEE39_RE.out"

 42 diagonal and 70 off-diagonal elements

 No power flow data changed for load "1" at bus 12 [LOAD12      138.00]

 No power flow data changed for load "1" at bus 7 [LOAD7       345.00]

 No power flow data changed for load "1" at bus 8 [LOAD8       345.00]

 No power flow data changed for load "1" at bus 23 [LOAD23      345.00]

 No power flow data changed for load "1" at bus 16 [LOAD16      345.00]

 No power flow data changed for load "1" at bus 18 [LOAD18      345.00]

 No power flow data changed for load "1" at bus 26 [LOAD26      345.00]

 Power flow data changed for load "1" at bus 29 [LOAD29      345.00]:
 X--ORIGINAL--X  X-NEW VALUE--X  DATA ITEM
   -147.387        -5.80644      PL

 Channel output file is "./Cases/IEEE39_RE.out"

 42 diagonal and 70 off-diagonal elements

 No power flow data changed for load "1" at bus 12 [LOAD12      138.00]

 No power flow data changed for load "1" at bus 7 [LOAD7       345.00]

 No power flow data changed for load "1" at bus 8 [LOAD8       345.00]

 No power flow data changed for load "1" at bus 23 [LOAD23      345.00]

 No power flow data changed for load "1" at bus 16 [LOAD16      345.00]

 No power flow data changed for load "1" at bus 18 [LOAD18      345.00]

 No power flow data changed for load "1" at bus 26 [LOAD26      345.00]

 Power flow data changed for load "1" at bus 29 [LOAD29      345.00]:
 X--ORIGINAL--X  X-NEW VALUE--X  DATA ITEM
   -5.80644         162.644      PL

 Channel output file is "./Cases/IEEE39_RE.out"

 42 diagonal and 70 off-diagonal elements

 No power flow data changed for load "1" at bus 12 [LOAD12      138.00]

 No power flow data changed for load "1" at bus 7 [LOAD7       345.00]

 No power flow data changed for load "1" at bus 8 [LOAD8       345.00]

 No power flow data changed for load "1" at bus 23 [LOAD23      345.00]

 No power flow data changed for load "1" at bus 16 [LOAD16      345.00]

 No power flow data changed for load "1" at bus 18 [LOAD18      345.00]

 No power flow data changed for load "1" at bus 26 [LOAD26      345.00]

 Power flow data changed for load "1" at bus 29 [LOAD29      345.00]:
 X--ORIGINAL--X  X-NEW VALUE--X  DATA ITEM
    162.644         204.968      PL

 Channel output file is "./Cases/IEEE39_RE.out"

 42 diagonal and 70 off-diagonal elements

 No power flow data changed for load "1" at bus 12 [LOAD12      138.00]

 No power flow data changed for load "1" at bus 7 [LOAD7       345.00]

 No power flow data changed for load "1" at bus 8 [LOAD8       345.00]

 No power flow data changed for load "1" at bus 23 [LOAD23      345.00]

 No power flow data changed for load "1" at bus 16 [LOAD16      345.00]

 No power flow data changed for load "1" at bus 18 [LOAD18      345.00]

 No power flow data changed for load "1" at bus 26 [LOAD26      345.00]

 Power flow data changed for load "1" at bus 29 [LOAD29      345.00]:
 X--ORIGINAL--X  X-NEW VALUE--X  DATA ITEM
    204.968         124.013      PL

 Channel output file is "./Cases/IEEE39_RE.out"

 42 diagonal and 70 off-diagonal elements

 No power flow data changed for load "1" at bus 12 [LOAD12      138.00]

 No power flow data changed for load "1" at bus 7 [LOAD7       345.00]

 No power flow data changed for load "1" at bus 8 [LOAD8       345.00]

 No power flow data changed for load "1" at bus 23 [LOAD23      345.00]

 No power flow data changed for load "1" at bus 16 [LOAD16      345.00]

 No power flow data changed for load "1" at bus 18 [LOAD18      345.00]

 No power flow data changed for load "1" at bus 26 [LOAD26      345.00]

 Power flow data changed for load "1" at bus 29 [LOAD29      345.00]:
 X--ORIGINAL--X  X-NEW VALUE--X  DATA ITEM
    124.013         40.6423      PL

 Channel output file is "./Cases/IEEE39_RE.out"

 42 diagonal and 70 off-diagonal elements

 No power flow data changed for load "1" at bus 12 [LOAD12      138.00]

 No power flow data changed for load "1" at bus 7 [LOAD7       345.00]

 No power flow data changed for load "1" at bus 8 [LOAD8       345.00]

 No power flow data changed for load "1" at bus 23 [LOAD23      345.00]

 No power flow data changed for load "1" at bus 16 [LOAD16      345.00]

 No power flow data changed for load "1" at bus 18 [LOAD18      345.00]

 No power flow data changed for load "1" at bus 26 [LOAD26      345.00]

 Power flow data changed for load "1" at bus 29 [LOAD29      345.00]:
 X--ORIGINAL--X  X-NEW VALUE--X  DATA ITEM
    40.6423         36.8975      PL

 Channel output file is "./Cases/IEEE39_RE.out"

 42 diagonal and 70 off-diagonal elements

 No power flow data changed for load "1" at bus 12 [LOAD12      138.00]

 No power flow data changed for load "1" at bus 7 [LOAD7       345.00]

 No power flow data changed for load "1" at bus 8 [LOAD8       345.00]

 No power flow data changed for load "1" at bus 23 [LOAD23      345.00]

 No power flow data changed for load "1" at bus 16 [LOAD16      345.00]

 No power flow data changed for load "1" at bus 18 [LOAD18      345.00]

 No power flow data changed for load "1" at bus 26 [LOAD26      345.00]

 Power flow data changed for load "1" at bus 29 [LOAD29      345.00]:
 X--ORIGINAL--X  X-NEW VALUE--X  DATA ITEM
    36.8975         79.5443      PL

 Channel output file is "./Cases/IEEE39_RE.out"

 42 diagonal and 70 off-diagonal elements

 No power flow data changed for load "1" at bus 12 [LOAD12      138.00]

 No power flow data changed for load "1" at bus 7 [LOAD7       345.00]

 No power flow data changed for load "1" at bus 8 [LOAD8       345.00]

 No power flow data changed for load "1" at bus 23 [LOAD23      345.00]

 No power flow data changed for load "1" at bus 16 [LOAD16      345.00]

 No power flow data changed for load "1" at bus 18 [LOAD18      345.00]

 No power flow data changed for load "1" at bus 26 [LOAD26      345.00]

 Power flow data changed for load "1" at bus 29 [LOAD29      345.00]:
 X--ORIGINAL--X  X-NEW VALUE--X  DATA ITEM
    79.5443         100.638      PL

 Channel output file is "./Cases/IEEE39_RE.out"

 42 diagonal and 70 off-diagonal elements

 No power flow data changed for load "1" at bus 12 [LOAD12      138.00]

 No power flow data changed for load "1" at bus 7 [LOAD7       345.00]

 No power flow data changed for load "1" at bus 8 [LOAD8       345.00]

 No power flow data changed for load "1" at bus 23 [LOAD23      345.00]

 No power flow data changed for load "1" at bus 16 [LOAD16      345.00]

 No power flow data changed for load "1" at bus 18 [LOAD18      345.00]

 No power flow data changed for load "1" at bus 26 [LOAD26      345.00]

 Power flow data changed for load "1" at bus 29 [LOAD29      345.00]:
 X--ORIGINAL--X  X-NEW VALUE--X  DATA ITEM
    100.638         102.505      PL

 Channel output file is "./Cases/IEEE39_RE.out"

 42 diagonal and 70 off-diagonal elements

 No power flow data changed for load "1" at bus 12 [LOAD12      138.00]

 No power flow data changed for load "1" at bus 7 [LOAD7       345.00]

 No power flow data changed for load "1" at bus 8 [LOAD8       345.00]

 No power flow data changed for load "1" at bus 23 [LOAD23      345.00]

 No power flow data changed for load "1" at bus 16 [LOAD16      345.00]

 No power flow data changed for load "1" at bus 18 [LOAD18      345.00]

 No power flow data changed for load "1" at bus 26 [LOAD26      345.00]

 Power flow data changed for load "1" at bus 29 [LOAD29      345.00]:
 X--ORIGINAL--X  X-NEW VALUE--X  DATA ITEM
    102.505         137.243      PL

 Channel output file is "./Cases/IEEE39_RE.out"

 42 diagonal and 70 off-diagonal elements

 No power flow data changed for load "1" at bus 12 [LOAD12      138.00]

 No power flow data changed for load "1" at bus 7 [LOAD7       345.00]

 No power flow data changed for load "1" at bus 8 [LOAD8       345.00]

 No power flow data changed for load "1" at bus 23 [LOAD23      345.00]

 No power flow data changed for load "1" at bus 16 [LOAD16      345.00]

 No power flow data changed for load "1" at bus 18 [LOAD18      345.00]

 No power flow data changed for load "1" at bus 26 [LOAD26      345.00]

 Power flow data changed for load "1" at bus 29 [LOAD29      345.00]:
 X--ORIGINAL--X  X-NEW VALUE--X  DATA ITEM
    137.243         200.528      PL

 Channel output file is "./Cases/IEEE39_RE.out"

 42 diagonal and 70 off-diagonal elements

 No power flow data changed for load "1" at bus 12 [LOAD12      138.00]

 No power flow data changed for load "1" at bus 7 [LOAD7       345.00]

 No power flow data changed for load "1" at bus 8 [LOAD8       345.00]

 No power flow data changed for load "1" at bus 23 [LOAD23      345.00]

 No power flow data changed for load "1" at bus 16 [LOAD16      345.00]

 No power flow data changed for load "1" at bus 18 [LOAD18      345.00]

 No power flow data changed for load "1" at bus 26 [LOAD26      345.00]

 Power flow data changed for load "1" at bus 29 [LOAD29      345.00]:
 X--ORIGINAL--X  X-NEW VALUE--X  DATA ITEM
    200.528         207.330      PL

 Channel output file is "./Cases/IEEE39_RE.out"

 42 diagonal and 70 off-diagonal elements

 No power flow data changed for load "1" at bus 12 [LOAD12      138.00]

 No power flow data changed for load "1" at bus 7 [LOAD7       345.00]

 No power flow data changed for load "1" at bus 8 [LOAD8       345.00]

 No power flow data changed for load "1" at bus 23 [LOAD23      345.00]

 No power flow data changed for load "1" at bus 16 [LOAD16      345.00]

 No power flow data changed for load "1" at bus 18 [LOAD18      345.00]

 No power flow data changed for load "1" at bus 26 [LOAD26      345.00]

 Power flow data changed for load "1" at bus 29 [LOAD29      345.00]:
 X--ORIGINAL--X  X-NEW VALUE--X  DATA ITEM
    207.330         99.5288      PL

 Channel output file is "./Cases/IEEE39_RE.out"

 42 diagonal and 70 off-diagonal elements

 No power flow data changed for load "1" at bus 12 [LOAD12      138.00]

 No power flow data changed for load "1" at bus 7 [LOAD7       345.00]

 No power flow data changed for load "1" at bus 8 [LOAD8       345.00]

 No power flow data changed for load "1" at bus 23 [LOAD23      345.00]

 No power flow data changed for load "1" at bus 16 [LOAD16      345.00]

 No power flow data changed for load "1" at bus 18 [LOAD18      345.00]

 No power flow data changed for load "1" at bus 26 [LOAD26      345.00]

 Power flow data changed for load "1" at bus 29 [LOAD29      345.00]:
 X--ORIGINAL--X  X-NEW VALUE--X  DATA ITEM
    99.5288        -56.9227      PL

 Channel output file is "./Cases/IEEE39_RE.out"

 42 diagonal and 70 off-diagonal elements

 No power flow data changed for load "1" at bus 12 [LOAD12      138.00]

 No power flow data changed for load "1" at bus 7 [LOAD7       345.00]

 No power flow data changed for load "1" at bus 8 [LOAD8       345.00]

 No power flow data changed for load "1" at bus 23 [LOAD23      345.00]

 No power flow data changed for load "1" at bus 16 [LOAD16      345.00]

 No power flow data changed for load "1" at bus 18 [LOAD18      345.00]

 No power flow data changed for load "1" at bus 26 [LOAD26      345.00]

 Power flow data changed for load "1" at bus 29 [LOAD29      345.00]:
 X--ORIGINAL--X  X-NEW VALUE--X  DATA ITEM
   -56.9227        -121.758      PL

 Channel output file is "./Cases/IEEE39_RE.out"

 42 diagonal and 70 off-diagonal elements
 LTC DELAY TIMER STARTED AT                24 LOAD24       345.00 1  V= 1.0000 AT TIME=   7.848

 No power flow data changed for load "1" at bus 12 [LOAD12      138.00]

 No power flow data changed for load "1" at bus 7 [LOAD7       345.00]

 No power flow data changed for load "1" at bus 8 [LOAD8       345.00]

 No power flow data changed for load "1" at bus 23 [LOAD23      345.00]

 No power flow data changed for load "1" at bus 16 [LOAD16      345.00]

 No power flow data changed for load "1" at bus 18 [LOAD18      345.00]

 No power flow data changed for load "1" at bus 26 [LOAD26      345.00]

 Power flow data changed for load "1" at bus 29 [LOAD29      345.00]:
 X--ORIGINAL--X  X-NEW VALUE--X  DATA ITEM
   -121.758        -29.2324      PL

 Channel output file is "./Cases/IEEE39_RE.out"

 42 diagonal and 70 off-diagonal elements

 No power flow data changed for load "1" at bus 12 [LOAD12      138.00]

 No power flow data changed for load "1" at bus 7 [LOAD7       345.00]

 No power flow data changed for load "1" at bus 8 [LOAD8       345.00]

 No power flow data changed for load "1" at bus 23 [LOAD23      345.00]

 No power flow data changed for load "1" at bus 16 [LOAD16      345.00]

 No power flow data changed for load "1" at bus 18 [LOAD18      345.00]

 No power flow data changed for load "1" at bus 26 [LOAD26      345.00]

 Power flow data changed for load "1" at bus 29 [LOAD29      345.00]:
 X--ORIGINAL--X  X-NEW VALUE--X  DATA ITEM
   -29.2324         134.337      PL

 Channel output file is "./Cases/IEEE39_RE.out"

 42 diagonal and 70 off-diagonal elements
 LTC DELAY TIMER STARTED AT                15 LOAD15       345.00 1  V= 1.0000 AT TIME=   8.044

 No power flow data changed for load "1" at bus 12 [LOAD12      138.00]

 No power flow data changed for load "1" at bus 7 [LOAD7       345.00]

 No power flow data changed for load "1" at bus 8 [LOAD8       345.00]

 No power flow data changed for load "1" at bus 23 [LOAD23      345.00]

 No power flow data changed for load "1" at bus 16 [LOAD16      345.00]

 No power flow data changed for load "1" at bus 18 [LOAD18      345.00]

 No power flow data changed for load "1" at bus 26 [LOAD26      345.00]

 Power flow data changed for load "1" at bus 29 [LOAD29      345.00]:
 X--ORIGINAL--X  X-NEW VALUE--X  DATA ITEM
    134.337         220.103      PL

 Channel output file is "./Cases/IEEE39_RE.out"

 42 diagonal and 70 off-diagonal elements
     LTC DELAY TIMER RESET

 No power flow data changed for load "1" at bus 12 [LOAD12      138.00]

 No power flow data changed for load "1" at bus 7 [LOAD7       345.00]

 No power flow data changed for load "1" at bus 8 [LOAD8       345.00]

 No power flow data changed for load "1" at bus 23 [LOAD23      345.00]

 No power flow data changed for load "1" at bus 16 [LOAD16      345.00]

 No power flow data changed for load "1" at bus 18 [LOAD18      345.00]

 No power flow data changed for load "1" at bus 26 [LOAD26      345.00]

 Power flow data changed for load "1" at bus 29 [LOAD29      345.00]:
 X--ORIGINAL--X  X-NEW VALUE--X  DATA ITEM
    220.103         174.454      PL

 Channel output file is "./Cases/IEEE39_RE.out"

 42 diagonal and 70 off-diagonal elements
     LTC DELAY TIMER RESET

 No power flow data changed for load "1" at bus 12 [LOAD12      138.00]

 No power flow data changed for load "1" at bus 7 [LOAD7       345.00]

 No power flow data changed for load "1" at bus 8 [LOAD8       345.00]

 No power flow data changed for load "1" at bus 23 [LOAD23      345.00]

 No power flow data changed for load "1" at bus 16 [LOAD16      345.00]

 No power flow data changed for load "1" at bus 18 [LOAD18      345.00]

 No power flow data changed for load "1" at bus 26 [LOAD26      345.00]

 Power flow data changed for load "1" at bus 29 [LOAD29      345.00]:
 X--ORIGINAL--X  X-NEW VALUE--X  DATA ITEM
    174.454         73.0838      PL

 Channel output file is "./Cases/IEEE39_RE.out"

 42 diagonal and 70 off-diagonal elements

 No power flow data changed for load "1" at bus 12 [LOAD12      138.00]

 No power flow data changed for load "1" at bus 7 [LOAD7       345.00]

 No power flow data changed for load "1" at bus 8 [LOAD8       345.00]

 No power flow data changed for load "1" at bus 23 [LOAD23      345.00]

 No power flow data changed for load "1" at bus 16 [LOAD16      345.00]

 No power flow data changed for load "1" at bus 18 [LOAD18      345.00]

 No power flow data changed for load "1" at bus 26 [LOAD26      345.00]

 Power flow data changed for load "1" at bus 29 [LOAD29      345.00]:
 X--ORIGINAL--X  X-NEW VALUE--X  DATA ITEM
    73.0838        -1.47126      PL

 Channel output file is "./Cases/IEEE39_RE.out"

 42 diagonal and 70 off-diagonal elements

 No power flow data changed for load "1" at bus 12 [LOAD12      138.00]

 No power flow data changed for load "1" at bus 7 [LOAD7       345.00]

 No power flow data changed for load "1" at bus 8 [LOAD8       345.00]

 No power flow data changed for load "1" at bus 23 [LOAD23      345.00]

 No power flow data changed for load "1" at bus 16 [LOAD16      345.00]

 No power flow data changed for load "1" at bus 18 [LOAD18      345.00]

 No power flow data changed for load "1" at bus 26 [LOAD26      345.00]

 Power flow data changed for load "1" at bus 29 [LOAD29      345.00]:
 X--ORIGINAL--X  X-NEW VALUE--X  DATA ITEM
   -1.47126        -54.4844      PL

 Channel output file is "./Cases/IEEE39_RE.out"

 42 diagonal and 70 off-diagonal elements

 No power flow data changed for load "1" at bus 12 [LOAD12      138.00]

 No power flow data changed for load "1" at bus 7 [LOAD7       345.00]

 No power flow data changed for load "1" at bus 8 [LOAD8       345.00]

 No power flow data changed for load "1" at bus 23 [LOAD23      345.00]

 No power flow data changed for load "1" at bus 16 [LOAD16      345.00]

 No power flow data changed for load "1" at bus 18 [LOAD18      345.00]

 No power flow data changed for load "1" at bus 26 [LOAD26      345.00]

 Power flow data changed for load "1" at bus 29 [LOAD29      345.00]:
 X--ORIGINAL--X  X-NEW VALUE--X  DATA ITEM
   -54.4843        -120.550      PL

 Channel output file is "./Cases/IEEE39_RE.out"

 42 diagonal and 70 off-diagonal elements

 No power flow data changed for load "1" at bus 12 [LOAD12      138.00]

 No power flow data changed for load "1" at bus 7 [LOAD7       345.00]

 No power flow data changed for load "1" at bus 8 [LOAD8       345.00]

 No power flow data changed for load "1" at bus 23 [LOAD23      345.00]

 No power flow data changed for load "1" at bus 16 [LOAD16      345.00]

 No power flow data changed for load "1" at bus 18 [LOAD18      345.00]

 No power flow data changed for load "1" at bus 26 [LOAD26      345.00]

 Power flow data changed for load "1" at bus 29 [LOAD29      345.00]:
 X--ORIGINAL--X  X-NEW VALUE--X  DATA ITEM
   -120.550        -172.666      PL

 Channel output file is "./Cases/IEEE39_RE.out"

 42 diagonal and 70 off-diagonal elements

 No power flow data changed for load "1" at bus 12 [LOAD12      138.00]

 No power flow data changed for load "1" at bus 7 [LOAD7       345.00]

 No power flow data changed for load "1" at bus 8 [LOAD8       345.00]

 No power flow data changed for load "1" at bus 23 [LOAD23      345.00]

 No power flow data changed for load "1" at bus 16 [LOAD16      345.00]

 No power flow data changed for load "1" at bus 18 [LOAD18      345.00]

 No power flow data changed for load "1" at bus 26 [LOAD26      345.00]

 Power flow data changed for load "1" at bus 29 [LOAD29      345.00]:
 X--ORIGINAL--X  X-NEW VALUE--X  DATA ITEM
   -172.666        -149.792      PL

 Channel output file is "./Cases/IEEE39_RE.out"

 42 diagonal and 70 off-diagonal elements

 No power flow data changed for load "1" at bus 12 [LOAD12      138.00]

 No power flow data changed for load "1" at bus 7 [LOAD7       345.00]

 No power flow data changed for load "1" at bus 8 [LOAD8       345.00]

 No power flow data changed for load "1" at bus 23 [LOAD23      345.00]

 No power flow data changed for load "1" at bus 16 [LOAD16      345.00]

 No power flow data changed for load "1" at bus 18 [LOAD18      345.00]

 No power flow data changed for load "1" at bus 26 [LOAD26      345.00]

 Power flow data changed for load "1" at bus 29 [LOAD29      345.00]:
 X--ORIGINAL--X  X-NEW VALUE--X  DATA ITEM
   -149.792        -45.7353      PL

 Channel output file is "./Cases/IEEE39_RE.out"

 42 diagonal and 70 off-diagonal elements

 No power flow data changed for load "1" at bus 12 [LOAD12      138.00]

 No power flow data changed for load "1" at bus 7 [LOAD7       345.00]

 No power flow data changed for load "1" at bus 8 [LOAD8       345.00]

 No power flow data changed for load "1" at bus 23 [LOAD23      345.00]

 No power flow data changed for load "1" at bus 16 [LOAD16      345.00]

 No power flow data changed for load "1" at bus 18 [LOAD18      345.00]

 No power flow data changed for load "1" at bus 26 [LOAD26      345.00]

 Power flow data changed for load "1" at bus 29 [LOAD29      345.00]:
 X--ORIGINAL--X  X-NEW VALUE--X  DATA ITEM
   -45.7353         78.1096      PL

 Channel output file is "./Cases/IEEE39_RE.out"

 42 diagonal and 70 off-diagonal elements
 LTC DELAY TIMER STARTED AT                15 LOAD15       345.00 1  V= 1.0201 AT TIME=   9.062
 LTC DELAY TIMER STARTED AT                24 LOAD24       345.00 1  V= 1.0200 AT TIME=   9.096

 No power flow data changed for load "1" at bus 12 [LOAD12      138.00]

 No power flow data changed for load "1" at bus 7 [LOAD7       345.00]

 No power flow data changed for load "1" at bus 8 [LOAD8       345.00]

 No power flow data changed for load "1" at bus 23 [LOAD23      345.00]

 No power flow data changed for load "1" at bus 16 [LOAD16      345.00]

 No power flow data changed for load "1" at bus 18 [LOAD18      345.00]

 No power flow data changed for load "1" at bus 26 [LOAD26      345.00]

 Power flow data changed for load "1" at bus 29 [LOAD29      345.00]:
 X--ORIGINAL--X  X-NEW VALUE--X  DATA ITEM
    78.1096         153.322      PL

 Channel output file is "./Cases/IEEE39_RE.out"

 42 diagonal and 70 off-diagonal elements

[...]
 X--ORIGINAL--X  X-NEW VALUE--X  DATA ITEM
   -36.5571         2.40619      PL

 Channel output file is "./Cases/IEEE39_RE.out"

 42 diagonal and 70 off-diagonal elements

 No power flow data changed for load "1" at bus 12 [LOAD12      138.00]

 No power flow data changed for load "1" at bus 7 [LOAD7       345.00]

 No power flow data changed for load "1" at bus 8 [LOAD8       345.00]

 No power flow data changed for load "1" at bus 23 [LOAD23      345.00]

 No power flow data changed for load "1" at bus 16 [LOAD16      345.00]

 No power flow data changed for load "1" at bus 18 [LOAD18      345.00]

 No power flow data changed for load "1" at bus 26 [LOAD26      345.00]

 Power flow data changed for load "1" at bus 29 [LOAD29      345.00]:
 X--ORIGINAL--X  X-NEW VALUE--X  DATA ITEM
    2.40619         178.155      PL

 Channel output file is "./Cases/IEEE39_RE.out"

 42 diagonal and 70 off-diagonal elements

 No power flow data changed for load "1" at bus 12 [LOAD12      138.00]

 No power flow data changed for load "1" at bus 7 [LOAD7       345.00]

 No power flow data changed for load "1" at bus 8 [LOAD8       345.00]

 No power flow data changed for load "1" at bus 23 [LOAD23      345.00]

 No power flow data changed for load "1" at bus 16 [LOAD16      345.00]

 No power flow data changed for load "1" at bus 18 [LOAD18      345.00]

 No power flow data changed for load "1" at bus 26 [LOAD26      345.00]

 Power flow data changed for load "1" at bus 29 [LOAD29      345.00]:
 X--ORIGINAL--X  X-NEW VALUE--X  DATA ITEM
    178.155         351.855      PL

 Channel output file is "./Cases/IEEE39_RE.out"

 42 diagonal and 70 off-diagonal elements

 No power flow data changed for load "1" at bus 12 [LOAD12      138.00]

 No power flow data changed for load "1" at bus 7 [LOAD7       345.00]

 No power flow data changed for load "1" at bus 8 [LOAD8       345.00]

 No power flow data changed for load "1" at bus 23 [LOAD23      345.00]

 No power flow data changed for load "1" at bus 16 [LOAD16      345.00]

 No power flow data changed for load "1" at bus 18 [LOAD18      345.00]

 No power flow data changed for load "1" at bus 26 [LOAD26      345.00]

 Power flow data changed for load "1" at bus 29 [LOAD29      345.00]:
 X--ORIGINAL--X  X-NEW VALUE--X  DATA ITEM
    351.855         363.191      PL

 Channel output file is "./Cases/IEEE39_RE.out"

 42 diagonal and 70 off-diagonal elements

 No power flow data changed for load "1" at bus 12 [LOAD12      138.00]

 No power flow data changed for load "1" at bus 7 [LOAD7       345.00]

 No power flow data changed for load "1" at bus 8 [LOAD8       345.00]

 No power flow data changed for load "1" at bus 23 [LOAD23      345.00]

 No power flow data changed for load "1" at bus 16 [LOAD16      345.00]

 No power flow data changed for load "1" at bus 18 [LOAD18      345.00]

 No power flow data changed for load "1" at bus 26 [LOAD26      345.00]

 Power flow data changed for load "1" at bus 29 [LOAD29      345.00]:
 X--ORIGINAL--X  X-NEW VALUE--X  DATA ITEM
    363.191         196.509      PL

 Channel output file is "./Cases/IEEE39_RE.out"

 42 diagonal and 70 off-diagonal elements

 No power flow data changed for load "1" at bus 12 [LOAD12      138.00]

 No power flow data changed for load "1" at bus 7 [LOAD7       345.00]

 No power flow data changed for load "1" at bus 8 [LOAD8       345.00]

 No power flow data changed for load "1" at bus 23 [LOAD23      345.00]

 No power flow data changed for load "1" at bus 16 [LOAD16      345.00]

 No power flow data changed for load "1" at bus 18 [LOAD18      345.00]

 No power flow data changed for load "1" at bus 26 [LOAD26      345.00]

 Power flow data changed for load "1" at bus 29 [LOAD29      345.00]:
 X--ORIGINAL--X  X-NEW VALUE--X  DATA ITEM
    196.509        -10.7784      PL

 Channel output file is "./Cases/IEEE39_RE.out"

 42 diagonal and 70 off-diagonal elements

 No power flow data changed for load "1" at bus 12 [LOAD12      138.00]

 No power flow data changed for load "1" at bus 7 [LOAD7       345.00]

 No power flow data changed for load "1" at bus 8 [LOAD8       345.00]

 No power flow data changed for load "1" at bus 23 [LOAD23      345.00]

 No power flow data changed for load "1" at bus 16 [LOAD16      345.00]

 No power flow data changed for load "1" at bus 18 [LOAD18      345.00]

 No power flow data changed for load "1" at bus 26 [LOAD26      345.00]

 Power flow data changed for load "1" at bus 29 [LOAD29      345.00]:
 X--ORIGINAL--X  X-NEW VALUE--X  DATA ITEM
   -10.7784        -110.917      PL

 Channel output file is "./Cases/IEEE39_RE.out"

 42 diagonal and 70 off-diagonal elements

 No power flow data changed for load "1" at bus 12 [LOAD12      138.00]

 No power flow data changed for load "1" at bus 7 [LOAD7       345.00]

 No power flow data changed for load "1" at bus 8 [LOAD8       345.00]

 No power flow data changed for load "1" at bus 23 [LOAD23      345.00]

 No power flow data changed for load "1" at bus 16 [LOAD16      345.00]

 No power flow data changed for load "1" at bus 18 [LOAD18      345.00]

 No power flow data changed for load "1" at bus 26 [LOAD26      345.00]

 Power flow data changed for load "1" at bus 29 [LOAD29      345.00]:
 X--ORIGINAL--X  X-NEW VALUE--X  DATA ITEM
   -110.917        -69.2852      PL

 Channel output file is "./Cases/IEEE39_RE.out"

 42 diagonal and 70 off-diagonal elements
     LTC DELAY TIMER RESET
     LTC DELAY TIMER RESET

 No power flow data changed for load "1" at bus 12 [LOAD12      138.00]

 No power flow data changed for load "1" at bus 7 [LOAD7       345.00]

 No power flow data changed for load "1" at bus 8 [LOAD8       345.00]

 No power flow data changed for load "1" at bus 23 [LOAD23      345.00]

 No power flow data changed for load "1" at bus 16 [LOAD16      345.00]

 No power flow data changed for load "1" at bus 18 [LOAD18      345.00]

 No power flow data changed for load "1" at bus 26 [LOAD26      345.00]

 Power flow data changed for load "1" at bus 29 [LOAD29      345.00]:
 X--ORIGINAL--X  X-NEW VALUE--X  DATA ITEM
   -69.2852         44.8556      PL

 Channel output file is "./Cases/IEEE39_RE.out"

 42 diagonal and 70 off-diagonal elements

 No power flow data changed for load "1" at bus 12 [LOAD12      138.00]

 No power flow data changed for load "1" at bus 7 [LOAD7       345.00]

 No power flow data changed for load "1" at bus 8 [LOAD8       345.00]

 No power flow data changed for load "1" at bus 23 [LOAD23      345.00]

 No power flow data changed for load "1" at bus 16 [LOAD16      345.00]

 No power flow data changed for load "1" at bus 18 [LOAD18      345.00]

 No power flow data changed for load "1" at bus 26 [LOAD26      345.00]

 Power flow data changed for load "1" at bus 29 [LOAD29      345.00]:
 X--ORIGINAL--X  X-NEW VALUE--X  DATA ITEM
    44.8556         152.923      PL

 Channel output file is "./Cases/IEEE39_RE.out"

 42 diagonal and 70 off-diagonal elements
 LTC DELAY TIMER STARTED AT                24 LOAD24       345.00 1  V= 0.9999 AT TIME=  98.295

 No power flow data changed for load "1" at bus 12 [LOAD12      138.00]

 No power flow data changed for load "1" at bus 7 [LOAD7       345.00]

 No power flow data changed for load "1" at bus 8 [LOAD8       345.00]

 No power flow data changed for load "1" at bus 23 [LOAD23      345.00]

 No power flow data changed for load "1" at bus 16 [LOAD16      345.00]

 No power flow data changed for load "1" at bus 18 [LOAD18      345.00]

 No power flow data changed for load "1" at bus 26 [LOAD26      345.00]

 Power flow data changed for load "1" at bus 29 [LOAD29      345.00]:
 X--ORIGINAL--X  X-NEW VALUE--X  DATA ITEM
    152.923         235.811      PL

 Channel output file is "./Cases/IEEE39_RE.out"

 42 diagonal and 70 off-diagonal elements
 LTC DELAY TIMER STARTED AT                15 LOAD15       345.00 1  V= 1.0000 AT TIME=  98.357

 No power flow data changed for load "1" at bus 12 [LOAD12      138.00]

 No power flow data changed for load "1" at bus 7 [LOAD7       345.00]

 No power flow data changed for load "1" at bus 8 [LOAD8       345.00]

 No power flow data changed for load "1" at bus 23 [LOAD23      345.00]

 No power flow data changed for load "1" at bus 16 [LOAD16      345.00]

 No power flow data changed for load "1" at bus 18 [LOAD18      345.00]

 No power flow data changed for load "1" at bus 26 [LOAD26      345.00]

 Power flow data changed for load "1" at bus 29 [LOAD29      345.00]:
 X--ORIGINAL--X  X-NEW VALUE--X  DATA ITEM
    235.811         319.323      PL

 Channel output file is "./Cases/IEEE39_RE.out"

 42 diagonal and 70 off-diagonal elements

 No power flow data changed for load "1" at bus 12 [LOAD12      138.00]

 No power flow data changed for load "1" at bus 7 [LOAD7       345.00]

 No power flow data changed for load "1" at bus 8 [LOAD8       345.00]

 No power flow data changed for load "1" at bus 23 [LOAD23      345.00]

 No power flow data changed for load "1" at bus 16 [LOAD16      345.00]

 No power flow data changed for load "1" at bus 18 [LOAD18      345.00]

 No power flow data changed for load "1" at bus 26 [LOAD26      345.00]

 Power flow data changed for load "1" at bus 29 [LOAD29      345.00]:
 X--ORIGINAL--X  X-NEW VALUE--X  DATA ITEM
    319.323         401.407      PL

 Channel output file is "./Cases/IEEE39_RE.out"

 42 diagonal and 70 off-diagonal elements

 No power flow data changed for load "1" at bus 12 [LOAD12      138.00]

 No power flow data changed for load "1" at bus 7 [LOAD7       345.00]

 No power flow data changed for load "1" at bus 8 [LOAD8       345.00]

 No power flow data changed for load "1" at bus 23 [LOAD23      345.00]

 No power flow data changed for load "1" at bus 16 [LOAD16      345.00]

 No power flow data changed for load "1" at bus 18 [LOAD18      345.00]

 No power flow data changed for load "1" at bus 26 [LOAD26      345.00]

 Power flow data changed for load "1" at bus 29 [LOAD29      345.00]:
 X--ORIGINAL--X  X-NEW VALUE--X  DATA ITEM
    401.407         411.365      PL

 Channel output file is "./Cases/IEEE39_RE.out"

 42 diagonal and 70 off-diagonal elements

 No power flow data changed for load "1" at bus 12 [LOAD12      138.00]

 No power flow data changed for load "1" at bus 7 [LOAD7       345.00]

 No power flow data changed for load "1" at bus 8 [LOAD8       345.00]

 No power flow data changed for load "1" at bus 23 [LOAD23      345.00]

 No power flow data changed for load "1" at bus 16 [LOAD16      345.00]

 No power flow data changed for load "1" at bus 18 [LOAD18      345.00]

 No power flow data changed for load "1" at bus 26 [LOAD26      345.00]

 Power flow data changed for load "1" at bus 29 [LOAD29      345.00]:
 X--ORIGINAL--X  X-NEW VALUE--X  DATA ITEM
    411.365         279.163      PL

 Channel output file is "./Cases/IEEE39_RE.out"

 42 diagonal and 70 off-diagonal elements

 No power flow data changed for load "1" at bus 12 [LOAD12      138.00]

 No power flow data changed for load "1" at bus 7 [LOAD7       345.00]

 No power flow data changed for load "1" at bus 8 [LOAD8       345.00]

 No power flow data changed for load "1" at bus 23 [LOAD23      345.00]

 No power flow data changed for load "1" at bus 16 [LOAD16      345.00]

 No power flow data changed for load "1" at bus 18 [LOAD18      345.00]

 No power flow data changed for load "1" at bus 26 [LOAD26      345.00]

 Power flow data changed for load "1" at bus 29 [LOAD29      345.00]:
 X--ORIGINAL--X  X-NEW VALUE--X  DATA ITEM
    279.163         57.1441      PL

 Channel output file is "./Cases/IEEE39_RE.out"

 42 diagonal and 70 off-diagonal elements

 No power flow data changed for load "1" at bus 12 [LOAD12      138.00]

 No power flow data changed for load "1" at bus 7 [LOAD7       345.00]

 No power flow data changed for load "1" at bus 8 [LOAD8       345.00]

 No power flow data changed for load "1" at bus 23 [LOAD23      345.00]

 No power flow data changed for load "1" at bus 16 [LOAD16      345.00]

 No power flow data changed for load "1" at bus 18 [LOAD18      345.00]

 No power flow data changed for load "1" at bus 26 [LOAD26      345.00]

 Power flow data changed for load "1" at bus 29 [LOAD29      345.00]:
 X--ORIGINAL--X  X-NEW VALUE--X  DATA ITEM
    57.1441        -80.3572      PL

 Channel output file is "./Cases/IEEE39_RE.out"

 42 diagonal and 70 off-diagonal elements

 No power flow data changed for load "1" at bus 12 [LOAD12      138.00]

 No power flow data changed for load "1" at bus 7 [LOAD7       345.00]

 No power flow data changed for load "1" at bus 8 [LOAD8       345.00]

 No power flow data changed for load "1" at bus 23 [LOAD23      345.00]

 No power flow data changed for load "1" at bus 16 [LOAD16      345.00]

 No power flow data changed for load "1" at bus 18 [LOAD18      345.00]

 No power flow data changed for load "1" at bus 26 [LOAD26      345.00]

 Power flow data changed for load "1" at bus 29 [LOAD29      345.00]:
 X--ORIGINAL--X  X-NEW VALUE--X  DATA ITEM
   -80.3572        -18.0515      PL

 Channel output file is "./Cases/IEEE39_RE.out"

 42 diagonal and 70 off-diagonal elements

 No power flow data changed for load "1" at bus 12 [LOAD12      138.00]

 No power flow data changed for load "1" at bus 7 [LOAD7       345.00]

 No power flow data changed for load "1" at bus 8 [LOAD8       345.00]

 No power flow data changed for load "1" at bus 23 [LOAD23      345.00]

 No power flow data changed for load "1" at bus 16 [LOAD16      345.00]

 No power flow data changed for load "1" at bus 18 [LOAD18      345.00]

 No power flow data changed for load "1" at bus 26 [LOAD26      345.00]

 Power flow data changed for load "1" at bus 29 [LOAD29      345.00]:
 X--ORIGINAL--X  X-NEW VALUE--X  DATA ITEM
   -18.0515         138.779      PL

 Channel output file is "./Cases/IEEE39_RE.out"

 42 diagonal and 70 off-diagonal elements

 No power flow data changed for load "1" at bus 12 [LOAD12      138.00]

 No power flow data changed for load "1" at bus 7 [LOAD7       345.00]

 No power flow data changed for load "1" at bus 8 [LOAD8       345.00]

 No power flow data changed for load "1" at bus 23 [LOAD23      345.00]

 No power flow data changed for load "1" at bus 16 [LOAD16      345.00]

 No power flow data changed for load "1" at bus 18 [LOAD18      345.00]

 No power flow data changed for load "1" at bus 26 [LOAD26      345.00]

 Power flow data changed for load "1" at bus 29 [LOAD29      345.00]:
 X--ORIGINAL--X  X-NEW VALUE--X  DATA ITEM
    138.779         158.752      PL

 Channel output file is "./Cases/IEEE39_RE.out"

 42 diagonal and 70 off-diagonal elements

 No power flow data changed for load "1" at bus 12 [LOAD12      138.00]

 No power flow data changed for load "1" at bus 7 [LOAD7       345.00]

 No power flow data changed for load "1" at bus 8 [LOAD8       345.00]

 No power flow data changed for load "1" at bus 23 [LOAD23      345.00]

 No power flow data changed for load "1" at bus 16 [LOAD16      345.00]

 No power flow data changed for load "1" at bus 18 [LOAD18      345.00]

 No power flow data changed for load "1" at bus 26 [LOAD26      345.00]

 Power flow data changed for load "1" at bus 29 [LOAD29      345.00]:
 X--ORIGINAL--X  X-NEW VALUE--X  DATA ITEM
    158.752        -36.1313      PL

 Channel output file is "./Cases/IEEE39_RE.out"

 42 diagonal and 70 off-diagonal elements

 No power flow data changed for load "1" at bus 12 [LOAD12      138.00]

 No power flow data changed for load "1" at bus 7 [LOAD7       345.00]

 No power flow data changed for load "1" at bus 8 [LOAD8       345.00]

 No power flow data changed for load "1" at bus 23 [LOAD23      345.00]

 No power flow data changed for load "1" at bus 16 [LOAD16      345.00]

 No power flow data changed for load "1" at bus 18 [LOAD18      345.00]

 No power flow data changed for load "1" at bus 26 [LOAD26      345.00]

 Power flow data changed for load "1" at bus 29 [LOAD29      345.00]:
 X--ORIGINAL--X  X-NEW VALUE--X  DATA ITEM
   -36.1313        -249.878      PL

 Channel output file is "./Cases/IEEE39_RE.out"

 42 diagonal and 70 off-diagonal elements

 No power flow data changed for load "1" at bus 12 [LOAD12      138.00]

 No power flow data changed for load "1" at bus 7 [LOAD7       345.00]

 No power flow data changed for load "1" at bus 8 [LOAD8       345.00]

 No power flow data changed for load "1" at bus 23 [LOAD23      345.00]

 No power flow data changed for load "1" at bus 16 [LOAD16      345.00]

 No power flow data changed for load "1" at bus 18 [LOAD18      345.00]

 No power flow data changed for load "1" at bus 26 [LOAD26      345.00]

 Power flow data changed for load "1" at bus 29 [LOAD29      345.00]:
 X--ORIGINAL--X  X-NEW VALUE--X  DATA ITEM
   -249.878        -228.787      PL

 Channel output file is "./Cases/IEEE39_RE.out"

 42 diagonal and 70 off-diagonal elements

 No power flow data changed for load "1" at bus 12 [LOAD12      138.00]

 No power flow data changed for load "1" at bus 7 [LOAD7       345.00]

 No power flow data changed for load "1" at bus 8 [LOAD8       345.00]

 No power flow data changed for load "1" at bus 23 [LOAD23      345.00]

 No power flow data changed for load "1" at bus 16 [LOAD16      345.00]

 No power flow data changed for load "1" at bus 18 [LOAD18      345.00]

 No power flow data changed for load "1" at bus 26 [LOAD26      345.00]

 Power flow data changed for load "1" at bus 29 [LOAD29      345.00]:
 X--ORIGINAL--X  X-NEW VALUE--X  DATA ITEM
   -228.787         36.3517      PL

 Channel output file is "./Cases/IEEE39_RE.out"

 42 diagonal and 70 off-diagonal elements
     LTC DELAY TIMER RESET

 No power flow data changed for load "1" at bus 12 [LOAD12      138.00]

 No power flow data changed for load "1" at bus 7 [LOAD7       345.00]

 No power flow data changed for load "1" at bus 8 [LOAD8       345.00]

 No power flow data changed for load "1" at bus 23 [LOAD23      345.00]

 No power flow data changed for load "1" at bus 16 [LOAD16      345.00]

 No power flow data changed for load "1" at bus 18 [LOAD18      345.00]

 No power flow data changed for load "1" at bus 26 [LOAD26      345.00]

 Power flow data changed for load "1" at bus 29 [LOAD29      345.00]:
 X--ORIGINAL--X  X-NEW VALUE--X  DATA ITEM
    36.3517         293.926      PL

 Channel output file is "./Cases/IEEE39_RE.out"

 42 diagonal and 70 off-diagonal elements
     LTC DELAY TIMER RESET

 No power flow data changed for load "1" at bus 12 [LOAD12      138.00]

 No power flow data changed for load "1" at bus 7 [LOAD7       345.00]

 No power flow data changed for load "1" at bus 8 [LOAD8       345.00]

 No power flow data changed for load "1" at bus 23 [LOAD23      345.00]

 No power flow data changed for load "1" at bus 16 [LOAD16      345.00]

 No power flow data changed for load "1" at bus 18 [LOAD18      345.00]

 No power flow data changed for load "1" at bus 26 [LOAD26      345.00]

 Power flow data changed for load "1" at bus 29 [LOAD29      345.00]:
 X--ORIGINAL--X  X-NEW VALUE--X  DATA ITEM
    293.926         314.451      PL

 Channel output file is "./Cases/IEEE39_RE.out"

 42 diagonal and 70 off-diagonal elements

 No power flow data changed for load "1" at bus 12 [LOAD12      138.00]

 No power flow data changed for load "1" at bus 7 [LOAD7       345.00]

 No power flow data changed for load "1" at bus 8 [LOAD8       345.00]

 No power flow data changed for load "1" at bus 23 [LOAD23      345.00]

 No power flow data changed for load "1" at bus 16 [LOAD16      345.00]

 No power flow data changed for load "1" at bus 18 [LOAD18      345.00]

 No power flow data changed for load "1" at bus 26 [LOAD26      345.00]

 Power flow data changed for load "1" at bus 29 [LOAD29      345.00]:
 X--ORIGINAL--X  X-NEW VALUE--X  DATA ITEM
    314.451         124.865      PL

 Channel output file is "./Cases/IEEE39_RE.out"

 42 diagonal and 70 off-diagonal elements
